unknown|11k_best|sdf|8271|dock5
  -GOLD-   3 721 0333D 1   1.00000     0.00000

 29 32  0  0  0  0  0  0  0  0  1 V2000
  -45.0342   -3.3706  -11.3036 C   0  0  0  0  0  0  0  0  0  0  0  0
  -44.1317   -4.2328  -10.4325 C   0  0  0  0  0  0  0  0  0  0  0  0
  -44.6996   -5.5379  -10.4321 O   0  0  0  0  0  0  0  0  0  0  0  0
  -44.2690   -6.5302   -9.5563 C   0  0  0  0  0  0  0  0  0  0  0  0
  -43.1613   -6.3104   -8.9800 O   0  0  0  0  0  0  0  0  0  0  0  0
  -44.6295   -7.9412   -9.7439 C   0  0  0  0  0  0  0  0  0  0  0  0
  -44.0060   -9.0101   -9.3225 O   0  0  0  0  0  0  0  0  0  0  0  0
  -44.1550  -10.0068  -10.1720 C   0  0  0  0  0  0  0  0  0  0  0  0
  -43.3655  -11.1101  -10.4707 C   0  0  0  0  0  0  0  0  0  0  0  0
  -43.8146  -11.9325  -11.4922 C   0  0  0  0  0  0  0  0  0  0  0  0
  -45.1069  -11.8534  -11.9714 C   0  0  0  0  0  0  0  0  0  0  0  0
  -45.7710  -13.2778  -12.7097 S   0  0  0  0  0  0  0  0  0  0  0  0
  -46.3293  -12.8947  -14.0623 O   0  0  0  0  0  0  0  0  0  0  0  0
  -46.8733  -13.8943  -11.8912 O   0  0  0  0  0  0  0  0  0  0  0  0
  -44.5961  -14.4959  -12.9824 N   0  0  0  0  0  0  0  0  0  0  0  0
  -44.8714  -15.6842  -13.7331 C   0  0  0  0  0  0  0  0  0  0  0  0
  -45.9298  -15.7298  -14.6297 C   0  0  0  0  0  0  0  0  0  0  0  0
  -45.8838  -16.4212  -15.8176 C   0  0  0  0  0  0  0  0  0  0  0  0
  -44.7061  -17.0422  -16.1731 C   0  0  0  0  0  0  0  0  0  0  0  0
  -44.3196  -17.7764  -17.2239 N   0  0  0  0  0  0  0  0  0  0  0  0
  -43.4073  -18.6729  -16.8086 C   0  0  0  0  0  0  0  0  0  0  0  0
  -43.0207  -19.7344  -17.3619 O   0  0  0  0  0  0  0  0  0  0  0  0
  -43.0785  -18.3750  -15.5310 N   0  0  0  0  0  0  0  0  0  0  0  0
  -43.7621  -17.2551  -15.1890 C   0  0  0  0  0  0  0  0  0  0  0  0
  -43.7746  -16.4701  -14.0564 C   0  0  0  0  0  0  0  0  0  0  0  0
  -45.7903  -10.6717  -11.8120 C   0  0  0  0  0  0  0  0  0  0  0  0
  -45.2980   -9.7342  -10.9128 C   0  0  0  0  0  0  0  0  0  0  0  0
  -45.5796   -8.4013  -10.6473 C   0  0  0  0  0  0  0  0  0  0  0  0
  -46.4433   -7.5189  -11.4580 C   0  0  0  0  0  0  0  0  0  0  0  0
  1  2  1  0  0  0  0
  2  3  1  0  0  0  0
  3  4  1  0  0  0  0
  4  5  2  0  0  0  0
  4  6  1  0  0  0  0
  6  7  1  0  0  0  0
  7  8  1  0  0  0  0
  8  9  2  0  0  0  0
  9 10  1  0  0  0  0
 10 11  2  0  0  0  0
 11 12  1  0  0  0  0
 12 13  2  0  0  0  0
 12 14  2  0  0  0  0
 12 15  1  0  0  0  0
 15 16  1  0  0  0  0
 16 17  2  0  0  0  0
 17 18  1  0  0  0  0
 18 19  2  0  0  0  0
 19 20  1  0  0  0  0
 20 21  1  0  0  0  0
 21 22  2  0  0  0  0
 21 23  1  0  0  0  0
 23 24  1  0  0  0  0
 24 25  2  0  0  0  0
 11 26  1  0  0  0  0
 26 27  2  0  0  0  0
 27 28  1  0  0  0  0
 28 29  1  0  0  0  0
 28  6  2  0  0  0  0
 27  8  1  0  0  0  0
 25 16  1  0  0  0  0
 24 19  1  0  0  0  0
M  END
>  <zinc_id>  (271) 
ZINC000004384666

>  <smiles>  (271) 
CCOC(=O)c1oc2ccc(S(=O)(=O)Nc3ccc4[nH]c(=O)[nH]c4c3)cc2c1C

>  <source_line>  (271) 
271

>  <source_data>  (271) 
ZINC000004384666

>  <source_name>  (271) 


>  <source_label>  (271) 
ZINC000004384666

>  <found_by>  (271) 
ZINC

> <Gold.Version>
5.8.1

> <Gold.Id.Protein>
ID|ID_protein|mol2

> <Gold.Goldscore.Fitness>
76.5931

> <Gold.Goldscore.Internal.Vdw>
2.0985

> <Gold.Goldscore.Internal.Torsion>
-6.5847

> <Gold.Goldscore.External.Vdw>
45.0670

> <Gold.Goldscore.Internal.HBond>
0.0000

> <Gold.Goldscore.External.HBond>
15.1826

> <Gold.Goldscore.Internal.Correction>
-3.9296

> <Gold.Goldscore.Hbonds>
donor molecule, donor type, donor heavy atom, donor atom, acceptor molecule, acceptor atom, score
      P1  H   112  4464       L1    13  0.72
      P1  H   441  4840       L1    13  1.00
      P1  H  1819  6078       L1    20  0.73
      P1  H  1822  6079       L1    22  0.85
      P1  H  1916  6166       L1    14  0.84

> <Gold.Goldscore.Internal.Vdw.Weighted>
2.0985

> <Gold.Goldscore.Internal.Torsion.Weighted>
-6.5847

> <Gold.Goldscore.External.Vdw.Weighted>
61.9671

> <Gold.Goldscore.Internal.HBond.Weighted>
0.0000

> <Gold.Goldscore.External.HBond.Weighted>
15.1826

> <Gold.Goldscore.Internal.Correction.Weighted>
-3.9296

> <Gold.Protein.RotatedTorsions>
[ 4464  112  111  109 ] final   69.99 input   60.00 | X-H torsion
[ 4839  441  440  439 ] final   24.87 input   60.00 | X-H torsion
[ 4985  758  757  756 ] final -132.78 input   60.00 | X-H torsion
[ 5271 1023 1022 1020 ] final -139.61 input   60.00 | X-H torsion
[ 6036 1776 1775 1774 ] final   65.77 input   60.00 | X-H torsion
[ 6078 1819 1818 1817 ] final  -99.95 input   60.00 | X-H torsion
[ 6166 1916 1915 1913 ] final  -84.50 input   60.00 | X-H torsion
[ 4818   65   64   63 ] final  -66.35 input   60.00 | X-H torsion
[ 6268 1997 1996 1994 ] final   13.60 input   60.00 | X-H torsion
[ 8592   72   71   70 ] final   43.17 input   60.00 | X-H torsion
[ 4356  100   99   97 ] final -138.27 input   60.00 | X-H torsion
[ 8510  202  201  200 ] final  -11.66 input   60.00 | X-H torsion
[ 5330 1065 1064 1063 ] final   49.01 input   60.00 | X-H torsion
[ 6640 2347 2346 2344 ] final  127.16 input   60.00 | X-H torsion
[ 4452  380  379  378 ] final  148.59 input   60.00 | X-H torsion
[ 4500  391  390  389 ] final -173.80 input   60.00 | X-H torsion

> <Gold.Protein.ActiveResidues>
 THR8    THR9    PRO10   ILE11   TYR12   TYR13   VAL14   ASN15   ALA16   HIS19  
 HIS22   SER25   VAL29   MET46   THR47   GLY48   THR49   ASP50   GLU51   HIS52  
 GLY53   GLN54   LYS55   VAL56   ALA57   GLU58   THR71   PHE78   ILE93   THR95  
 THR96   HIS100  GLU101  VAL104  TRP108  TYR126  VAL128  SER129  ASP130  GLU131 
 SER132  LEU210  SER211  ILE212  SER213  ARG214  LYS215  ARG216  SER218  VAL219 
 MET220  ASN221  TRP222  SER223  ILE224  PRO225  VAL226  HIS232  CYS233  ILE234 
 TYR235  VAL236  TRP237  LEU238  ASP239  ALA240  LEU241  PHE242  ASN243  TYR244 
 TYR245  THR246  HIS275  VAL276  VAL277  GLY278  LYS279  ASP280  ILE281  LEU282 
 LYS283  PHE284  HIS285  ALA286  ILE287  TYR288  TRP289  PRO290  PHE292  LEU304 
 TRP309 

> <Gold.Protein.RotatedAtoms>
  -32.1179   -6.8981   -6.3199 H   0  0  0  0  0  0  0  0  0  0  0  0  # atno 4356 bound_to 100 
  -30.3555   -8.3890   -8.2632 H   0  0  0  0  0  0  0  0  0  0  0  0  # atno 4452 bound_to 380 
  -45.7933  -11.6775  -15.4113 H   0  0  0  0  0  0  0  0  0  0  0  0  # atno 4464 bound_to 112 
  -34.5538   -9.7307  -16.8668 H   0  0  0  0  0  0  0  0  0  0  0  0  # atno 4500 bound_to 391 
  -30.4068  -16.3036   -2.7050 H   0  0  0  0  0  0  0  0  0  0  0  0  # atno 4818 bound_to 65  
  -49.2428  -10.8822  -14.3374 H   0  0  0  0  0  0  0  0  0  0  0  0  # atno 4839 bound_to 441 
  -47.7841  -11.5238  -13.8812 H   0  0  0  0  0  0  0  0  0  0  0  0  # atno 4840 bound_to 441 
  -48.9490  -11.2208  -12.7417 H   0  0  0  0  0  0  0  0  0  0  0  0  # atno 4841 bound_to 441 
  -38.6976  -17.2210  -16.7291 H   0  0  0  0  0  0  0  0  0  0  0  0  # atno 4985 bound_to 758 
  -54.7350  -16.1012  -14.4976 H   0  0  0  0  0  0  0  0  0  0  0  0  # atno 5271 bound_to 1023
  -54.2706  -14.8756   -8.5001 H   0  0  0  0  0  0  0  0  0  0  0  0  # atno 5330 bound_to 1065
  -55.0651  -16.5152  -18.3030 H   0  0  0  0  0  0  0  0  0  0  0  0  # atno 6036 bound_to 1776
  -45.1278  -17.7969  -18.2636 H   0  0  0  0  0  0  0  0  0  0  0  0  # atno 6078 bound_to 1819
  -48.8991  -15.0608  -11.6273 H   0  0  0  0  0  0  0  0  0  0  0  0  # atno 6166 bound_to 1916
  -34.3646  -14.9454   -5.0997 H   0  0  0  0  0  0  0  0  0  0  0  0  # atno 6268 bound_to 1997
  -48.9012  -19.9789   -1.3422 H   0  0  0  0  0  0  0  0  0  0  0  0  # atno 6640 bound_to 2347
  -34.9243   -6.3498   -1.2536 H   0  0  0  0  0  0  0  0  0  0  0  0  # atno 8510 bound_to 202 
  -32.0819   -9.4416   -3.4366 H   0  0  0  0  0  0  0  0  0  0  0  0  # atno 8592 bound_to 72  
  -44.7166  -11.3290  -16.5807 LP  0  0  0  0  0  0  0  0  0  0  0  0  # atno 8618 bound_to 112 
  -45.8952  -10.2621  -16.2076 LP  0  0  0  0  0  0  0  0  0  0  0  0  # atno 8619 bound_to 112 
  -37.7689  -17.9455  -15.6063 LP  0  0  0  0  0  0  0  0  0  0  0  0  # atno 8637 bound_to 758 
  -37.3504  -18.0126  -17.1833 LP  0  0  0  0  0  0  0  0  0  0  0  0  # atno 8638 bound_to 758 
  -54.4725  -17.5899  -15.1002 LP  0  0  0  0  0  0  0  0  0  0  0  0  # atno 8642 bound_to 1023
  -54.2603  -17.3018  -13.5069 LP  0  0  0  0  0  0  0  0  0  0  0  0  # atno 8643 bound_to 1023
  -53.4432  -16.4189  -18.2120 LP  0  0  0  0  0  0  0  0  0  0  0  0  # atno 8662 bound_to 1776
  -54.2428  -17.5786  -17.3860 LP  0  0  0  0  0  0  0  0  0  0  0  0  # atno 8663 bound_to 1776
  -46.5083  -17.8816  -19.1209 LP  0  0  0  0  0  0  0  0  0  0  0  0  # atno 8672 bound_to 1819
  -45.2584  -16.9839  -19.6672 LP  0  0  0  0  0  0  0  0  0  0  0  0  # atno 8673 bound_to 1819
  -49.9795  -15.7543  -10.6274 LP  0  0  0  0  0  0  0  0  0  0  0  0  # atno 8684 bound_to 1916
  -50.3837  -15.4367  -12.1774 LP  0  0  0  0  0  0  0  0  0  0  0  0  # atno 8685 bound_to 1916
  -31.5221  -16.5382   -3.8666 LP  0  0  0  0  0  0  0  0  0  0  0  0  # atno 8712 bound_to 65  
  -31.3528  -15.0670   -3.1783 LP  0  0  0  0  0  0  0  0  0  0  0  0  # atno 8713 bound_to 65  
  -35.1019  -15.8146   -3.9382 LP  0  0  0  0  0  0  0  0  0  0  0  0  # atno 8724 bound_to 1997
  -35.7545  -15.7237   -5.4324 LP  0  0  0  0  0  0  0  0  0  0  0  0  # atno 8725 bound_to 1997
  -32.8718   -9.3574   -4.8569 LP  0  0  0  0  0  0  0  0  0  0  0  0  # atno 8747 bound_to 72  
  -31.5672   -8.4128   -4.5876 LP  0  0  0  0  0  0  0  0  0  0  0  0  # atno 8748 bound_to 72  
  -32.4870   -8.4548   -6.0221 LP  0  0  0  0  0  0  0  0  0  0  0  0  # atno 8749 bound_to 100 
  -33.2981   -7.2600   -5.2596 LP  0  0  0  0  0  0  0  0  0  0  0  0  # atno 8750 bound_to 100 
  -35.4240   -7.7306   -1.9548 LP  0  0  0  0  0  0  0  0  0  0  0  0  # atno 8754 bound_to 202 
  -35.5310   -6.3158   -2.7632 LP  0  0  0  0  0  0  0  0  0  0  0  0  # atno 8755 bound_to 202 
  -53.8432  -16.1162   -7.5377 LP  0  0  0  0  0  0  0  0  0  0  0  0  # atno 8775 bound_to 1065
  -54.6421  -14.8347   -6.9163 LP  0  0  0  0  0  0  0  0  0  0  0  0  # atno 8776 bound_to 1065
  -49.4892  -21.4505   -1.7121 LP  0  0  0  0  0  0  0  0  0  0  0  0  # atno 8779 bound_to 2347
  -49.3054  -20.3243   -2.8802 LP  0  0  0  0  0  0  0  0  0  0  0  0  # atno 8780 bound_to 2347
  -31.2102   -9.7597   -8.4597 LP  0  0  0  0  0  0  0  0  0  0  0  0  # atno 8787 bound_to 380 
  -30.7385   -8.8945   -9.7618 LP  0  0  0  0  0  0  0  0  0  0  0  0  # atno 8788 bound_to 380 

$$$$
