unknown|11k_best|sdf|8333|dock6
  -GOLD-   3 721 1503D 1   1.00000     0.00000

 22 22  0  0  0  0  0  0  0  0  1 V2000
  -44.5999   -7.6122  -10.8249 C   0  0  0  0  0  0  0  0  0  0  0  0
  -44.9070   -8.9351  -10.1787 C   0  0  0  0  0  0  0  0  0  0  0  0
  -46.2202   -9.3589  -10.5976 N   0  0  0  0  0  0  0  0  0  0  0  0
  -47.2084   -8.6310   -9.8441 C   0  0  0  0  0  0  0  0  0  0  0  0
  -47.8205   -7.4940  -10.6416 C   0  0  0  0  0  0  0  0  0  0  0  0
  -46.3078  -10.7857  -10.4115 C   0  0  0  0  0  0  0  0  0  0  0  0
  -45.0945  -11.5082  -10.9541 C   0  0  0  0  0  0  0  0  0  0  0  0
  -45.1846  -11.7137  -12.4587 C   0  0  0  0  0  0  0  0  0  0  0  0
  -46.4661  -12.3685  -12.7077 N   0  0  0  0  0  0  0  0  0  0  0  0
  -46.3605  -14.0763  -12.4310 S   0  0  0  0  0  0  0  0  0  0  0  0
  -45.1078  -14.3487  -11.6709 O   0  0  0  0  0  0  0  0  0  0  0  0
  -47.5798  -14.5692  -11.7306 O   0  0  0  0  0  0  0  0  0  0  0  0
  -46.1988  -14.8278  -14.0147 C   0  0  0  0  0  0  0  0  0  0  0  0
  -47.2600  -15.5665  -14.5137 C   0  0  0  0  0  0  0  0  0  0  0  0
  -47.0963  -16.5277  -15.5030 C   0  0  0  0  0  0  0  0  0  0  0  0
  -48.2947  -16.7821  -16.7653 Cl  0  0  0  0  0  0  0  0  0  0  0  0
  -45.8404  -17.1194  -15.5530 C   0  0  0  0  0  0  0  0  0  0  0  0
  -45.6968  -18.2624  -16.3066 O   0  0  0  0  0  0  0  0  0  0  0  0
  -44.3755  -18.6519  -16.6432 C   0  0  0  0  0  0  0  0  0  0  0  0
  -44.7277  -16.3793  -15.1701 C   0  0  0  0  0  0  0  0  0  0  0  0
  -44.9270  -15.2878  -14.3325 C   0  0  0  0  0  0  0  0  0  0  0  0
  -43.6148  -14.1462  -14.0554 Cl  0  0  0  0  0  0  0  0  0  0  0  0
  1  2  1  0  0  0  0
  2  3  1  0  0  0  0
  3  4  1  0  0  0  0
  4  5  1  0  0  0  0
  3  6  1  0  0  0  0
  6  7  1  0  0  0  0
  7  8  1  0  0  0  0
  8  9  1  0  0  0  0
  9 10  1  0  0  0  0
 10 11  2  0  0  0  0
 10 12  2  0  0  0  0
 10 13  1  0  0  0  0
 13 14  2  0  0  0  0
 14 15  1  0  0  0  0
 15 16  1  0  0  0  0
 15 17  2  0  0  0  0
 17 18  1  0  0  0  0
 18 19  1  0  0  0  0
 17 20  1  0  0  0  0
 20 21  2  0  0  0  0
 21 22  1  0  0  0  0
 21 13  1  0  0  0  0
M  END
>  <zinc_id>  (333) 
ZINC000072414631

>  <smiles>  (333) 
CCN(CC)CCCNS(=O)(=O)c1cc(Cl)c(OC)cc1Cl

>  <source_line>  (333) 
333

>  <source_data>  (333) 
ZINC000072414631

>  <source_name>  (333) 


>  <source_label>  (333) 
ZINC000072414631

>  <found_by>  (333) 
ZINC

> <Gold.Version>
5.8.1

> <Gold.Id.Protein>
ID|ID_protein|mol2

> <Gold.Goldscore.Fitness>
61.0274

> <Gold.Goldscore.Internal.Vdw>
0.7496

> <Gold.Goldscore.Internal.Torsion>
-4.2441

> <Gold.Goldscore.External.Vdw>
38.3849

> <Gold.Goldscore.Internal.HBond>
0.0000

> <Gold.Goldscore.External.HBond>
11.3589

> <Gold.Goldscore.Internal.Correction>
-0.3838

> <Gold.Goldscore.Hbonds>
donor molecule, donor type, donor heavy atom, donor atom, acceptor molecule, acceptor atom, score
      P1  H   441  4841       L1     9  1.00
      P1  H  1916  6166       L1    12  0.68

> <Gold.Goldscore.Internal.Vdw.Weighted>
0.7496

> <Gold.Goldscore.Internal.Torsion.Weighted>
-4.2441

> <Gold.Goldscore.External.Vdw.Weighted>
52.7792

> <Gold.Goldscore.Internal.HBond.Weighted>
0.0000

> <Gold.Goldscore.External.HBond.Weighted>
11.3589

> <Gold.Goldscore.Internal.Correction.Weighted>
-0.3838

> <Gold.Protein.RotatedTorsions>
[ 4464  112  111  109 ] final  154.87 input   60.00 | X-H torsion
[ 4839  441  440  439 ] final  -58.59 input   60.00 | X-H torsion
[ 4985  758  757  756 ] final   77.12 input   60.00 | X-H torsion
[ 5271 1023 1022 1020 ] final   66.61 input   60.00 | X-H torsion
[ 6036 1776 1775 1774 ] final -160.88 input   60.00 | X-H torsion
[ 6078 1819 1818 1817 ] final  -16.52 input   60.00 | X-H torsion
[ 6166 1916 1915 1913 ] final  -86.95 input   60.00 | X-H torsion
[ 4818   65   64   63 ] final   19.20 input   60.00 | X-H torsion
[ 6268 1997 1996 1994 ] final   96.22 input   60.00 | X-H torsion
[ 8592   72   71   70 ] final   57.52 input   60.00 | X-H torsion
[ 4356  100   99   97 ] final  -28.81 input   60.00 | X-H torsion
[ 8510  202  201  200 ] final  -70.27 input   60.00 | X-H torsion
[ 5330 1065 1064 1063 ] final  -59.22 input   60.00 | X-H torsion
[ 6640 2347 2346 2344 ] final    1.85 input   60.00 | X-H torsion
[ 4452  380  379  378 ] final  -93.76 input   60.00 | X-H torsion
[ 4500  391  390  389 ] final  128.75 input   60.00 | X-H torsion

> <Gold.Protein.ActiveResidues>
 THR8    THR9    PRO10   ILE11   TYR12   TYR13   VAL14   ASN15   ALA16   HIS19  
 HIS22   SER25   VAL29   MET46   THR47   GLY48   THR49   ASP50   GLU51   HIS52  
 GLY53   GLN54   LYS55   VAL56   ALA57   GLU58   THR71   PHE78   ILE93   THR95  
 THR96   HIS100  GLU101  VAL104  TRP108  TYR126  VAL128  SER129  ASP130  GLU131 
 SER132  LEU210  SER211  ILE212  SER213  ARG214  LYS215  ARG216  SER218  VAL219 
 MET220  ASN221  TRP222  SER223  ILE224  PRO225  VAL226  HIS232  CYS233  ILE234 
 TYR235  VAL236  TRP237  LEU238  ASP239  ALA240  LEU241  PHE242  ASN243  TYR244 
 TYR245  THR246  HIS275  VAL276  VAL277  GLY278  LYS279  ASP280  ILE281  LEU282 
 LYS283  PHE284  HIS285  ALA286  ILE287  TYR288  TRP289  PRO290  PHE292  LEU304 
 TRP309 

> <Gold.Protein.RotatedAtoms>
  -33.2447   -7.1029   -5.3072 H   0  0  0  0  0  0  0  0  0  0  0  0  # atno 4356 bound_to 100 
  -30.7165   -8.8643   -9.7499 H   0  0  0  0  0  0  0  0  0  0  0  0  # atno 4452 bound_to 380 
  -46.1702  -10.5333  -15.7927 H   0  0  0  0  0  0  0  0  0  0  0  0  # atno 4464 bound_to 112 
  -35.2553  -10.2940  -16.8841 H   0  0  0  0  0  0  0  0  0  0  0  0  # atno 4500 bound_to 391 
  -30.9415  -15.1550   -2.8142 H   0  0  0  0  0  0  0  0  0  0  0  0  # atno 4818 bound_to 65  
  -49.3933  -10.9979  -13.0777 H   0  0  0  0  0  0  0  0  0  0  0  0  # atno 4839 bound_to 441 
  -48.7275  -11.0506  -14.5947 H   0  0  0  0  0  0  0  0  0  0  0  0  # atno 4840 bound_to 441 
  -47.8551  -11.5783  -13.2879 H   0  0  0  0  0  0  0  0  0  0  0  0  # atno 4841 bound_to 441 
  -37.4028  -18.1406  -15.8629 H   0  0  0  0  0  0  0  0  0  0  0  0  # atno 4985 bound_to 758 
  -54.3264  -17.8715  -14.6559 H   0  0  0  0  0  0  0  0  0  0  0  0  # atno 5271 bound_to 1023
  -53.8129  -16.0981   -7.7272 H   0  0  0  0  0  0  0  0  0  0  0  0  # atno 5330 bound_to 1065
  -54.0275  -17.5428  -17.3954 H   0  0  0  0  0  0  0  0  0  0  0  0  # atno 6036 bound_to 1776
  -44.8604  -17.0723  -19.2412 H   0  0  0  0  0  0  0  0  0  0  0  0  # atno 6078 bound_to 1819
  -48.8899  -15.0690  -11.5890 H   0  0  0  0  0  0  0  0  0  0  0  0  # atno 6166 bound_to 1916
  -35.3515  -15.3723   -5.7094 H   0  0  0  0  0  0  0  0  0  0  0  0  # atno 6268 bound_to 1997
  -49.5056  -21.4601   -1.7973 H   0  0  0  0  0  0  0  0  0  0  0  0  # atno 6640 bound_to 2347
  -35.0475   -7.2569   -1.2105 H   0  0  0  0  0  0  0  0  0  0  0  0  # atno 8510 bound_to 202 
  -31.8993   -9.2958   -3.4251 H   0  0  0  0  0  0  0  0  0  0  0  0  # atno 8592 bound_to 72  
  -45.3460  -11.9294  -15.6518 LP  0  0  0  0  0  0  0  0  0  0  0  0  # atno 8618 bound_to 112 
  -44.8863  -10.8140  -16.7524 LP  0  0  0  0  0  0  0  0  0  0  0  0  # atno 8619 bound_to 112 
  -37.7008  -17.7637  -17.4177 LP  0  0  0  0  0  0  0  0  0  0  0  0  # atno 8637 bound_to 758 
  -38.7225  -17.2682  -16.2441 LP  0  0  0  0  0  0  0  0  0  0  0  0  # atno 8638 bound_to 758 
  -54.3830  -16.7699  -13.4594 LP  0  0  0  0  0  0  0  0  0  0  0  0  # atno 8642 bound_to 1023
  -54.7612  -16.3390  -14.9884 LP  0  0  0  0  0  0  0  0  0  0  0  0  # atno 8643 bound_to 1023
  -55.1555  -16.6748  -18.1843 LP  0  0  0  0  0  0  0  0  0  0  0  0  # atno 8662 bound_to 1776
  -53.5755  -16.2880  -18.3277 LP  0  0  0  0  0  0  0  0  0  0  0  0  # atno 8663 bound_to 1776
  -45.6546  -18.0578  -18.2185 LP  0  0  0  0  0  0  0  0  0  0  0  0  # atno 8672 bound_to 1819
  -46.3814  -17.5375  -19.5851 LP  0  0  0  0  0  0  0  0  0  0  0  0  # atno 8673 bound_to 1819
  -50.0162  -15.7634  -10.6418 LP  0  0  0  0  0  0  0  0  0  0  0  0  # atno 8684 bound_to 1916
  -50.3562  -15.4195  -12.2015 LP  0  0  0  0  0  0  0  0  0  0  0  0  # atno 8685 bound_to 1916
  -30.5797  -16.7281   -3.0205 LP  0  0  0  0  0  0  0  0  0  0  0  0  # atno 8712 bound_to 65  
  -31.7568  -16.0339   -3.9145 LP  0  0  0  0  0  0  0  0  0  0  0  0  # atno 8713 bound_to 65  
  -34.2782  -15.0852   -4.5203 LP  0  0  0  0  0  0  0  0  0  0  0  0  # atno 8724 bound_to 1997
  -35.5843  -16.0233   -4.2363 LP  0  0  0  0  0  0  0  0  0  0  0  0  # atno 8725 bound_to 1997
  -32.9238   -9.4958   -4.6735 LP  0  0  0  0  0  0  0  0  0  0  0  0  # atno 8747 bound_to 72  
  -31.6991   -8.4212   -4.7826 LP  0  0  0  0  0  0  0  0  0  0  0  0  # atno 8748 bound_to 72  
  -32.0358   -7.0306   -6.3942 LP  0  0  0  0  0  0  0  0  0  0  0  0  # atno 8749 bound_to 100 
  -32.6145   -8.4779   -5.9074 LP  0  0  0  0  0  0  0  0  0  0  0  0  # atno 8750 bound_to 100 
  -35.6604   -7.2686   -2.7179 LP  0  0  0  0  0  0  0  0  0  0  0  0  # atno 8754 bound_to 202 
  -35.1705   -5.8644   -2.0435 LP  0  0  0  0  0  0  0  0  0  0  0  0  # atno 8755 bound_to 202 
  -54.5838  -14.9905   -6.8178 LP  0  0  0  0  0  0  0  0  0  0  0  0  # atno 8775 bound_to 1065
  -54.3625  -14.7293   -8.4145 LP  0  0  0  0  0  0  0  0  0  0  0  0  # atno 8776 bound_to 1065
  -49.2737  -20.2465   -2.8563 LP  0  0  0  0  0  0  0  0  0  0  0  0  # atno 8779 bound_to 2347
  -48.9122  -20.0367   -1.2777 LP  0  0  0  0  0  0  0  0  0  0  0  0  # atno 8780 bound_to 2347
  -30.3661   -8.4044   -8.2287 LP  0  0  0  0  0  0  0  0  0  0  0  0  # atno 8787 bound_to 380 
  -31.2189   -9.7712   -8.4956 LP  0  0  0  0  0  0  0  0  0  0  0  0  # atno 8788 bound_to 380 

$$$$
