unknown|11k_best|sdf|8259|dock7
  -GOLD-   3 721 0183D 1   1.00000     0.00000

 27 30  0  0  0  0  0  0  0  0  1 V2000
  -51.4571  -16.4650   -9.4724 C   0  0  0  0  0  0  0  0  0  0  0  0
  -51.4764  -15.8590   -9.1302 O   0  0  0  0  0  0  0  0  0  0  0  0
  -51.4323  -14.5913   -8.5411 C   0  0  0  0  0  0  0  0  0  0  0  0
  -51.9766  -14.3931   -7.2772 C   0  0  0  0  0  0  0  0  0  0  0  0
  -51.6877  -13.2280   -6.5756 C   0  0  0  0  0  0  0  0  0  0  0  0
  -51.0795  -12.2143   -7.3056 C   0  0  0  0  0  0  0  0  0  0  0  0
  -50.5309  -12.4328   -8.5587 C   0  0  0  0  0  0  0  0  0  0  0  0
  -49.7770  -11.3831   -9.2965 C   0  0  0  0  0  0  0  0  0  0  0  0
  -50.4940  -13.7198   -9.0831 C   0  0  0  0  0  0  0  0  0  0  0  0
  -49.3145  -14.2057   -9.7371 N   0  0  0  0  0  0  0  0  0  0  0  0
  -48.3707  -13.3135  -10.3458 C   0  0  0  0  0  0  0  0  0  0  0  0
  -48.8875  -12.4859  -11.1557 O   0  0  0  0  0  0  0  0  0  0  0  0
  -47.0726  -13.8684  -10.5689 N   0  0  0  0  0  0  0  0  0  0  0  0
  -45.8963  -13.4698   -9.8299 C   0  0  0  0  0  0  0  0  0  0  0  0
  -45.0071  -12.7322  -10.8260 C   0  0  0  0  0  0  0  0  0  0  0  0
  -44.8036  -13.5776  -12.0789 C   0  0  0  0  0  0  0  0  0  0  0  0
  -46.2982  -13.5442  -12.8129 C   0  0  1  0  0  0  0  0  0  0  0  0
  -45.8530  -14.6352  -13.9235 C   0  0  0  0  0  0  0  0  0  0  0  0
  -44.6626  -15.1167  -14.0649 N   0  0  0  0  0  0  0  0  0  0  0  0
  -44.4918  -16.1156  -14.8928 C   0  0  0  0  0  0  0  0  0  0  0  0
  -45.6108  -16.7625  -15.3105 C   0  0  0  0  0  0  0  0  0  0  0  0
  -46.8440  -15.9205  -14.4612 S   0  0  0  0  0  0  0  0  0  0  0  0
  -45.6470  -18.0675  -16.0219 C   0  0  0  0  0  0  0  0  0  0  0  0
  -44.2674  -18.4873  -16.4403 C   0  0  0  0  0  0  0  0  0  0  0  0
  -43.3595  -18.2919  -15.2316 C   0  0  0  0  0  0  0  0  0  0  0  0
  -43.1695  -16.7932  -15.1179 C   0  0  0  0  0  0  0  0  0  0  0  0
  -46.8979  -14.6840  -11.7559 C   0  0  0  0  0  0  0  0  0  0  0  0
  1  2  1  0  0  0  0
  2  3  1  0  0  0  0
  3  4  2  0  0  0  0
  4  5  1  0  0  0  0
  5  6  2  0  0  0  0
  6  7  1  0  0  0  0
  7  8  1  0  0  0  0
  7  9  2  0  0  0  0
  9 10  1  0  0  0  0
 10 11  1  0  0  0  0
 11 12  2  0  0  0  0
 11 13  1  0  0  0  0
 13 14  1  0  0  0  0
 14 15  1  0  0  0  0
 15 16  1  0  0  0  0
 16 17  1  0  0  0  0
 17 18  1  0  0  0  0
 18 19  2  0  0  0  0
 19 20  1  0  0  0  0
 20 21  2  0  0  0  0
 21 22  1  0  0  0  0
 21 23  1  0  0  0  0
 23 24  1  0  0  0  0
 24 25  1  0  0  0  0
 25 26  1  0  0  0  0
 17 27  1  0  0  0  0
  9  3  1  0  0  0  0
 27 13  1  0  0  0  0
 22 18  1  0  0  0  0
 26 20  1  0  0  0  0
M  END
>  <zinc_id>  (259) 
ZINC000195055588

>  <smiles>  (259) 
COc1cccc(C)c1NC(=O)N1CCC[C@@H](c2nc3c(s2)CCCC3)C1

>  <source_line>  (259) 
259

>  <source_data>  (259) 
ZINC000195055588

>  <source_name>  (259) 


>  <source_label>  (259) 
ZINC000195055588

>  <found_by>  (259) 
ZINC

> <Gold.Version>
5.8.1

> <Gold.Id.Protein>
ID|ID_protein|mol2

> <Gold.Goldscore.Fitness>
58.1462

> <Gold.Goldscore.Internal.Vdw>
-4.5810

> <Gold.Goldscore.Internal.Torsion>
-34.7252

> <Gold.Goldscore.External.Vdw>
42.1837

> <Gold.Goldscore.Internal.HBond>
0.0000

> <Gold.Goldscore.External.HBond>
6.1979

> <Gold.Goldscore.Internal.Correction>
-33.2518

> <Gold.Goldscore.Hbonds>
donor molecule, donor type, donor heavy atom, donor atom, acceptor molecule, acceptor atom, score
      P1  H   441  4840       L1    12  1.00
      P1  H  1916  6166       L1    10  0.03
      P1  H  1065  5330       L1     2  0.02

> <Gold.Goldscore.Internal.Vdw.Weighted>
-4.5810

> <Gold.Goldscore.Internal.Torsion.Weighted>
-34.7252

> <Gold.Goldscore.External.Vdw.Weighted>
58.0026

> <Gold.Goldscore.Internal.HBond.Weighted>
0.0000

> <Gold.Goldscore.External.HBond.Weighted>
6.1979

> <Gold.Goldscore.Internal.Correction.Weighted>
-33.2518

> <Gold.Protein.RotatedTorsions>
[ 4464  112  111  109 ] final  -38.32 input   60.00 | X-H torsion
[ 4839  441  440  439 ] final  116.54 input   60.00 | X-H torsion
[ 4985  758  757  756 ] final   68.82 input   60.00 | X-H torsion
[ 5271 1023 1022 1020 ] final   64.52 input   60.00 | X-H torsion
[ 6036 1776 1775 1774 ] final   52.96 input   60.00 | X-H torsion
[ 6078 1819 1818 1817 ] final  -55.03 input   60.00 | X-H torsion
[ 6166 1916 1915 1913 ] final -163.35 input   60.00 | X-H torsion
[ 4818   65   64   63 ] final -143.00 input   60.00 | X-H torsion
[ 6268 1997 1996 1994 ] final  120.44 input   60.00 | X-H torsion
[ 8592   72   71   70 ] final  143.96 input   60.00 | X-H torsion
[ 4356  100   99   97 ] final   51.00 input   60.00 | X-H torsion
[ 8510  202  201  200 ] final -169.39 input   60.00 | X-H torsion
[ 5330 1065 1064 1063 ] final  -41.73 input   60.00 | X-H torsion
[ 6640 2347 2346 2344 ] final  141.75 input   60.00 | X-H torsion
[ 4452  380  379  378 ] final -109.99 input   60.00 | X-H torsion
[ 4500  391  390  389 ] final  -60.92 input   60.00 | X-H torsion

> <Gold.Protein.ActiveResidues>
 THR8    THR9    PRO10   ILE11   TYR12   TYR13   VAL14   ASN15   ALA16   HIS19  
 HIS22   SER25   VAL29   MET46   THR47   GLY48   THR49   ASP50   GLU51   HIS52  
 GLY53   GLN54   LYS55   VAL56   ALA57   GLU58   THR71   PHE78   ILE93   THR95  
 THR96   HIS100  GLU101  VAL104  TRP108  TYR126  VAL128  SER129  ASP130  GLU131 
 SER132  LEU210  SER211  ILE212  SER213  ARG214  LYS215  ARG216  SER218  VAL219 
 MET220  ASN221  TRP222  SER223  ILE224  PRO225  VAL226  HIS232  CYS233  ILE234 
 TYR235  VAL236  TRP237  LEU238  ASP239  ALA240  LEU241  PHE242  ASN243  TYR244 
 TYR245  THR246  HIS275  VAL276  VAL277  GLY278  LYS279  ASP280  ILE281  LEU282 
 LYS283  PHE284  HIS285  ALA286  ILE287  TYR288  TRP289  PRO290  PHE292  LEU304 
 TRP309 

> <Gold.Protein.RotatedAtoms>
  -33.0688   -8.2761   -5.4952 H   0  0  0  0  0  0  0  0  0  0  0  0  # atno 4356 bound_to 100 
  -30.5819   -8.6513   -9.6703 H   0  0  0  0  0  0  0  0  0  0  0  0  # atno 4452 bound_to 380 
  -44.7246  -11.4866  -16.4720 H   0  0  0  0  0  0  0  0  0  0  0  0  # atno 4464 bound_to 112 
  -33.6740  -10.6441  -15.9579 H   0  0  0  0  0  0  0  0  0  0  0  0  # atno 4500 bound_to 391 
  -31.0276  -16.8677   -3.5079 H   0  0  0  0  0  0  0  0  0  0  0  0  # atno 4818 bound_to 65  
  -47.9694  -11.3933  -14.2912 H   0  0  0  0  0  0  0  0  0  0  0  0  # atno 4839 bound_to 441 
  -48.5145  -11.3951  -12.7259 H   0  0  0  0  0  0  0  0  0  0  0  0  # atno 4840 bound_to 441 
  -49.4920  -10.8384  -13.9432 H   0  0  0  0  0  0  0  0  0  0  0  0  # atno 4841 bound_to 441 
  -37.3238  -18.1773  -15.9668 H   0  0  0  0  0  0  0  0  0  0  0  0  # atno 4985 bound_to 758 
  -54.3187  -17.8799  -14.6237 H   0  0  0  0  0  0  0  0  0  0  0  0  # atno 5271 bound_to 1023
  -53.7951  -16.0151   -7.9989 H   0  0  0  0  0  0  0  0  0  0  0  0  # atno 5330 bound_to 1065
  -54.9433  -16.3758  -18.3997 H   0  0  0  0  0  0  0  0  0  0  0  0  # atno 6036 bound_to 1776
  -44.7683  -17.3632  -18.7044 H   0  0  0  0  0  0  0  0  0  0  0  0  # atno 6078 bound_to 1819
  -49.3594  -15.5275  -10.6352 H   0  0  0  0  0  0  0  0  0  0  0  0  # atno 6166 bound_to 1916
  -35.6340  -15.6037   -5.5647 H   0  0  0  0  0  0  0  0  0  0  0  0  # atno 6268 bound_to 1997
  -48.8852  -19.8358   -1.5315 H   0  0  0  0  0  0  0  0  0  0  0  0  # atno 6640 bound_to 2347
  -35.6067   -7.5200   -2.4945 H   0  0  0  0  0  0  0  0  0  0  0  0  # atno 8510 bound_to 202 
  -31.4547   -8.4716   -4.3009 H   0  0  0  0  0  0  0  0  0  0  0  0  # atno 8592 bound_to 72  
  -45.7599  -10.2379  -16.3419 LP  0  0  0  0  0  0  0  0  0  0  0  0  # atno 8618 bound_to 112 
  -45.9281  -11.5455  -15.3783 LP  0  0  0  0  0  0  0  0  0  0  0  0  # atno 8619 bound_to 112 
  -37.8135  -17.6902  -17.4403 LP  0  0  0  0  0  0  0  0  0  0  0  0  # atno 8637 bound_to 758 
  -38.6893  -17.3049  -16.1169 LP  0  0  0  0  0  0  0  0  0  0  0  0  # atno 8638 bound_to 758 
  -54.3923  -16.7377  -13.4669 LP  0  0  0  0  0  0  0  0  0  0  0  0  # atno 8642 bound_to 1023
  -54.7597  -16.3627  -15.0132 LP  0  0  0  0  0  0  0  0  0  0  0  0  # atno 8643 bound_to 1023
  -53.3573  -16.5659  -18.0885 LP  0  0  0  0  0  0  0  0  0  0  0  0  # atno 8662 bound_to 1776
  -54.4514  -17.5720  -17.4122 LP  0  0  0  0  0  0  0  0  0  0  0  0  # atno 8663 bound_to 1776
  -46.1978  -18.1174  -18.5152 LP  0  0  0  0  0  0  0  0  0  0  0  0  # atno 8672 bound_to 1819
  -45.9309  -17.1849  -19.8290 LP  0  0  0  0  0  0  0  0  0  0  0  0  # atno 8673 bound_to 1819
  -50.6402  -15.6968  -11.6245 LP  0  0  0  0  0  0  0  0  0  0  0  0  # atno 8684 bound_to 1916
  -49.2594  -15.0243  -12.1794 LP  0  0  0  0  0  0  0  0  0  0  0  0  # atno 8685 bound_to 1916
  -31.7252  -15.4054   -3.6599 LP  0  0  0  0  0  0  0  0  0  0  0  0  # atno 8712 bound_to 65  
  -30.5246  -15.6318   -2.5765 LP  0  0  0  0  0  0  0  0  0  0  0  0  # atno 8713 bound_to 65  
  -34.2937  -14.9662   -4.8973 LP  0  0  0  0  0  0  0  0  0  0  0  0  # atno 8724 bound_to 1997
  -35.2843  -15.9092   -4.0050 LP  0  0  0  0  0  0  0  0  0  0  0  0  # atno 8725 bound_to 1997
  -32.3355   -9.6013   -3.5288 LP  0  0  0  0  0  0  0  0  0  0  0  0  # atno 8747 bound_to 72  
  -32.7350   -9.1459   -5.0453 LP  0  0  0  0  0  0  0  0  0  0  0  0  # atno 8748 bound_to 72  
  -32.8865   -6.6636   -5.6166 LP  0  0  0  0  0  0  0  0  0  0  0  0  # atno 8749 bound_to 100 
  -31.9410   -7.6635   -6.4956 LP  0  0  0  0  0  0  0  0  0  0  0  0  # atno 8750 bound_to 100 
  -35.3046   -5.9275   -2.3514 LP  0  0  0  0  0  0  0  0  0  0  0  0  # atno 8754 bound_to 202 
  -34.9632   -6.9404   -1.1168 LP  0  0  0  0  0  0  0  0  0  0  0  0  # atno 8755 bound_to 202 
  -54.4722  -15.2420   -6.7372 LP  0  0  0  0  0  0  0  0  0  0  0  0  # atno 8775 bound_to 1065
  -54.4920  -14.5614   -8.2215 LP  0  0  0  0  0  0  0  0  0  0  0  0  # atno 8776 bound_to 1065
  -49.4221  -21.3715   -1.4962 LP  0  0  0  0  0  0  0  0  0  0  0  0  # atno 8779 bound_to 2347
  -49.3886  -20.5474   -2.9056 LP  0  0  0  0  0  0  0  0  0  0  0  0  # atno 8780 bound_to 2347
  -30.4629   -8.5753   -8.0492 LP  0  0  0  0  0  0  0  0  0  0  0  0  # atno 8787 bound_to 380 
  -31.2577   -9.8148   -8.7552 LP  0  0  0  0  0  0  0  0  0  0  0  0  # atno 8788 bound_to 380 

$$$$
