unknown|11k_best|sdf|8245|dock7
  -GOLD-   3 721 0 13D 1   1.00000     0.00000

 28 31  0  0  0  0  0  0  0  0  1 V2000
  -43.3925  -18.0153  -15.1378 C   0  0  0  0  0  0  0  0  0  0  0  0
  -44.7433  -17.4233  -15.4135 C   0  0  0  0  0  0  0  0  0  0  0  0
  -45.5619  -18.0336  -16.3613 C   0  0  0  0  0  0  0  0  0  0  0  0
  -47.0705  -17.3021  -15.9795 S   0  0  0  0  0  0  0  0  0  0  0  0
  -46.4738  -16.1180  -14.8884 C   0  0  0  0  0  0  0  0  0  0  0  0
  -46.9925  -15.2595  -13.9743 N   0  0  0  0  0  0  0  0  0  0  0  0
  -46.2408  -14.2880  -13.3974 C   0  0  0  0  0  0  0  0  0  0  0  0
  -46.5157  -14.0085  -11.9791 C   0  0  0  0  0  0  0  0  0  0  0  0
  -45.9021  -12.9400  -11.3803 N   0  0  0  0  0  0  0  0  0  0  0  0
  -44.9926  -13.1546  -10.2932 C   0  0  0  0  0  0  0  0  0  0  0  0
  -44.3441  -11.7775  -10.1300 C   0  0  0  0  0  0  0  0  0  0  0  0
  -44.1463  -11.2818  -11.5478 C   0  0  0  0  0  0  0  0  0  0  0  0
  -45.5613  -10.5600  -11.9704 C   0  0  2  0  0  0  0  0  0  0  0  0
  -45.5391   -9.6030  -10.6691 C   0  0  0  0  0  0  0  0  0  0  0  0
  -46.7231   -9.5348  -10.2156 O   0  0  0  0  0  0  0  0  0  0  0  0
  -44.9503   -8.3348  -10.9425 N   0  0  0  0  0  0  0  0  0  0  0  0
  -45.1588   -7.1534  -10.2065 C   0  0  0  0  0  0  0  0  0  0  0  0
  -45.5483   -7.2922   -8.8789 C   0  0  0  0  0  0  0  0  0  0  0  0
  -44.9983   -6.5519   -7.8492 C   0  0  0  0  0  0  0  0  0  0  0  0
  -44.1520   -5.5052   -8.1953 C   0  0  0  0  0  0  0  0  0  0  0  0
  -44.2267   -5.0940   -9.5209 C   0  0  0  0  0  0  0  0  0  0  0  0
  -43.7168   -3.7284   -9.8151 C   0  0  0  0  0  0  0  0  0  0  0  0
  -44.5295   -5.9870  -10.4946 N   0  0  0  0  0  0  0  0  0  0  0  0
  -46.5036  -11.6844  -11.2304 C   0  0  0  0  0  0  0  0  0  0  0  0
  -44.9946  -14.1228  -13.9903 C   0  0  0  0  0  0  0  0  0  0  0  0
  -44.3863  -15.1289  -14.7318 C   0  0  0  0  0  0  0  0  0  0  0  0
  -43.1532  -15.0427  -15.0193 O   0  0  0  0  0  0  0  0  0  0  0  0
  -45.1502  -16.1593  -15.1762 N   0  0  0  0  0  0  0  0  0  0  0  0
  1  2  1  0  0  0  0
  2  3  2  0  0  0  0
  3  4  1  0  0  0  0
  4  5  1  0  0  0  0
  5  6  2  0  0  0  0
  6  7  1  0  0  0  0
  7  8  1  0  0  0  0
  8  9  1  0  0  0  0
  9 10  1  0  0  0  0
 10 11  1  0  0  0  0
 11 12  1  0  0  0  0
 12 13  1  0  0  0  0
 13 14  1  0  0  0  0
 14 15  2  0  0  0  0
 14 16  1  0  0  0  0
 16 17  1  0  0  0  0
 17 18  2  0  0  0  0
 18 19  1  0  0  0  0
 19 20  2  0  0  0  0
 20 21  1  0  0  0  0
 21 22  1  0  0  0  0
 21 23  2  0  0  0  0
 13 24  1  0  0  0  0
  7 25  2  0  0  0  0
 25 26  1  0  0  0  0
 26 27  2  0  0  0  0
 26 28  1  0  0  0  0
 28  2  1  0  0  0  0
 28  5  1  0  0  0  0
 24  9  1  0  0  0  0
 23 17  1  0  0  0  0
M  END
>  <zinc_id>  (245) 
ZINC000047261112

>  <smiles>  (245) 
Cc1cccc(NC(=O)[C@H]2CCCN(Cc3cc(=O)n4c(C)csc4n3)C2)n1

>  <source_line>  (245) 
245

>  <source_data>  (245) 
ZINC000047261112

>  <source_name>  (245) 


>  <source_label>  (245) 
ZINC000047261112

>  <found_by>  (245) 
ZINC

> <Gold.Version>
5.8.1

> <Gold.Id.Protein>
ID|ID_protein|mol2

> <Gold.Goldscore.Fitness>
56.3628

> <Gold.Goldscore.Internal.Vdw>
-0.7955

> <Gold.Goldscore.Internal.Torsion>
-8.8624

> <Gold.Goldscore.External.Vdw>
43.1467

> <Gold.Goldscore.Internal.HBond>
0.0000

> <Gold.Goldscore.External.HBond>
0.2260

> <Gold.Goldscore.Internal.Correction>
-6.4679

> <Gold.Goldscore.Hbonds>
donor molecule, donor type, donor heavy atom, donor atom, acceptor molecule, acceptor atom, score
      P1  H   127  4539       L1    23  0.11

> <Gold.Goldscore.Internal.Vdw.Weighted>
-0.7955

> <Gold.Goldscore.Internal.Torsion.Weighted>
-8.8624

> <Gold.Goldscore.External.Vdw.Weighted>
59.3267

> <Gold.Goldscore.Internal.HBond.Weighted>
0.0000

> <Gold.Goldscore.External.HBond.Weighted>
0.2260

> <Gold.Goldscore.Internal.Correction.Weighted>
-6.4679

> <Gold.Protein.RotatedTorsions>
[ 4464  112  111  109 ] final  -28.10 input   60.00 | X-H torsion
[ 4839  441  440  439 ] final -119.43 input   60.00 | X-H torsion
[ 4985  758  757  756 ] final  -11.03 input   60.00 | X-H torsion
[ 5271 1023 1022 1020 ] final   98.42 input   60.00 | X-H torsion
[ 6036 1776 1775 1774 ] final  139.49 input   60.00 | X-H torsion
[ 6078 1819 1818 1817 ] final   -5.47 input   60.00 | X-H torsion
[ 6166 1916 1915 1913 ] final  -53.24 input   60.00 | X-H torsion
[ 4818   65   64   63 ] final   27.53 input   60.00 | X-H torsion
[ 6268 1997 1996 1994 ] final  170.03 input   60.00 | X-H torsion
[ 8592   72   71   70 ] final  -27.44 input   60.00 | X-H torsion
[ 4356  100   99   97 ] final   55.00 input   60.00 | X-H torsion
[ 8510  202  201  200 ] final  132.16 input   60.00 | X-H torsion
[ 5330 1065 1064 1063 ] final -156.46 input   60.00 | X-H torsion
[ 6640 2347 2346 2344 ] final -153.43 input   60.00 | X-H torsion
[ 4452  380  379  378 ] final  -26.86 input   60.00 | X-H torsion
[ 4500  391  390  389 ] final -131.06 input   60.00 | X-H torsion

> <Gold.Protein.ActiveResidues>
 THR8    THR9    PRO10   ILE11   TYR12   TYR13   VAL14   ASN15   ALA16   HIS19  
 HIS22   SER25   VAL29   MET46   THR47   GLY48   THR49   ASP50   GLU51   HIS52  
 GLY53   GLN54   LYS55   VAL56   ALA57   GLU58   THR71   PHE78   ILE93   THR95  
 THR96   HIS100  GLU101  VAL104  TRP108  TYR126  VAL128  SER129  ASP130  GLU131 
 SER132  LEU210  SER211  ILE212  SER213  ARG214  LYS215  ARG216  SER218  VAL219 
 MET220  ASN221  TRP222  SER223  ILE224  PRO225  VAL226  HIS232  CYS233  ILE234 
 TYR235  VAL236  TRP237  LEU238  ASP239  ALA240  LEU241  PHE242  ASN243  TYR244 
 TYR245  THR246  HIS275  VAL276  VAL277  GLY278  LYS279  ASP280  ILE281  LEU282 
 LYS283  PHE284  HIS285  ALA286  ILE287  TYR288  TRP289  PRO290  PHE292  LEU304 
 TRP309 

> <Gold.Protein.RotatedAtoms>
  -33.0298   -8.3144   -5.5314 H   0  0  0  0  0  0  0  0  0  0  0  0  # atno 4356 bound_to 100 
  -31.1961   -9.6759   -9.3298 H   0  0  0  0  0  0  0  0  0  0  0  0  # atno 4452 bound_to 380 
  -44.7535  -11.6132  -16.3676 H   0  0  0  0  0  0  0  0  0  0  0  0  # atno 4464 bound_to 112 
  -33.9510   -9.7919  -16.5532 H   0  0  0  0  0  0  0  0  0  0  0  0  # atno 4500 bound_to 391 
  -31.0408  -15.1059   -2.8930 H   0  0  0  0  0  0  0  0  0  0  0  0  # atno 4818 bound_to 65  
  -48.5768  -11.3721  -12.7140 H   0  0  0  0  0  0  0  0  0  0  0  0  # atno 4839 bound_to 441 
  -49.4677  -10.8391  -14.0061 H   0  0  0  0  0  0  0  0  0  0  0  0  # atno 4840 bound_to 441 
  -47.9314  -11.4155  -14.2401 H   0  0  0  0  0  0  0  0  0  0  0  0  # atno 4841 bound_to 441 
  -37.3372  -18.0212  -17.1583 H   0  0  0  0  0  0  0  0  0  0  0  0  # atno 4985 bound_to 758 
  -54.4655  -17.6097  -15.0748 H   0  0  0  0  0  0  0  0  0  0  0  0  # atno 5271 bound_to 1023
  -54.4348  -15.3201   -6.7363 H   0  0  0  0  0  0  0  0  0  0  0  0  # atno 5330 bound_to 1065
  -54.9202  -17.3856  -17.6081 H   0  0  0  0  0  0  0  0  0  0  0  0  # atno 6036 bound_to 1776
  -44.9545  -17.0241  -19.3872 H   0  0  0  0  0  0  0  0  0  0  0  0  # atno 6078 bound_to 1819
  -49.1431  -15.0182  -12.0667 H   0  0  0  0  0  0  0  0  0  0  0  0  # atno 6166 bound_to 1916
  -35.8685  -15.9769   -4.9148 H   0  0  0  0  0  0  0  0  0  0  0  0  # atno 6268 bound_to 1997
  -49.0657  -19.8378   -2.5185 H   0  0  0  0  0  0  0  0  0  0  0  0  # atno 6640 bound_to 2347
  -35.6228   -6.6809   -2.8568 H   0  0  0  0  0  0  0  0  0  0  0  0  # atno 8510 bound_to 202 
  -32.8479   -9.7060   -4.1537 H   0  0  0  0  0  0  0  0  0  0  0  0  # atno 8592 bound_to 72  
  -45.6317  -10.2458  -16.4499 LP  0  0  0  0  0  0  0  0  0  0  0  0  # atno 8618 bound_to 112 
  -46.0272  -11.4101  -15.3754 LP  0  0  0  0  0  0  0  0  0  0  0  0  # atno 8619 bound_to 112 
  -38.6965  -17.2208  -16.7586 LP  0  0  0  0  0  0  0  0  0  0  0  0  # atno 8637 bound_to 758 
  -37.7929  -17.9314  -15.5987 LP  0  0  0  0  0  0  0  0  0  0  0  0  # atno 8638 bound_to 758 
  -54.2656  -17.2719  -13.4955 LP  0  0  0  0  0  0  0  0  0  0  0  0  # atno 8642 bound_to 1023
  -54.7385  -16.1006  -14.5304 LP  0  0  0  0  0  0  0  0  0  0  0  0  # atno 8643 bound_to 1023
  -54.4844  -16.1279  -18.5443 LP  0  0  0  0  0  0  0  0  0  0  0  0  # atno 8662 bound_to 1776
  -53.3476  -16.9932  -17.7535 LP  0  0  0  0  0  0  0  0  0  0  0  0  # atno 8663 bound_to 1776
  -45.4854  -17.9964  -18.1952 LP  0  0  0  0  0  0  0  0  0  0  0  0  # atno 8672 bound_to 1819
  -46.4559  -17.6474  -19.4613 LP  0  0  0  0  0  0  0  0  0  0  0  0  # atno 8673 bound_to 1819
  -49.5002  -15.5912  -10.5861 LP  0  0  0  0  0  0  0  0  0  0  0  0  # atno 8684 bound_to 1916
  -50.6173  -15.6429  -11.7761 LP  0  0  0  0  0  0  0  0  0  0  0  0  # atno 8685 bound_to 1916
  -30.5170  -16.6462   -2.9305 LP  0  0  0  0  0  0  0  0  0  0  0  0  # atno 8712 bound_to 65  
  -31.7195  -16.1652   -3.9251 LP  0  0  0  0  0  0  0  0  0  0  0  0  # atno 8713 bound_to 65  
  -34.7236  -15.0166   -5.5591 LP  0  0  0  0  0  0  0  0  0  0  0  0  # atno 8724 bound_to 1997
  -34.6183  -15.4829   -3.9977 LP  0  0  0  0  0  0  0  0  0  0  0  0  # atno 8725 bound_to 1997
  -32.1249   -8.6053   -5.1097 LP  0  0  0  0  0  0  0  0  0  0  0  0  # atno 8747 bound_to 72  
  -31.5427   -8.8987   -3.6126 LP  0  0  0  0  0  0  0  0  0  0  0  0  # atno 8748 bound_to 72  
  -32.9315   -6.6907   -5.5766 LP  0  0  0  0  0  0  0  0  0  0  0  0  # atno 8749 bound_to 100 
  -31.9352   -7.5979   -6.4992 LP  0  0  0  0  0  0  0  0  0  0  0  0  # atno 8750 bound_to 100 
  -34.9803   -6.0548   -1.4992 LP  0  0  0  0  0  0  0  0  0  0  0  0  # atno 8754 bound_to 202 
  -35.2712   -7.6582   -1.6042 LP  0  0  0  0  0  0  0  0  0  0  0  0  # atno 8755 bound_to 202 
  -54.5271  -14.5233   -8.1522 LP  0  0  0  0  0  0  0  0  0  0  0  0  # atno 8775 bound_to 1065
  -53.7929  -15.9800   -8.0781 LP  0  0  0  0  0  0  0  0  0  0  0  0  # atno 8776 bound_to 1065
  -49.0497  -20.5436   -1.0524 LP  0  0  0  0  0  0  0  0  0  0  0  0  # atno 8779 bound_to 2347
  -49.5792  -21.3733   -2.3553 LP  0  0  0  0  0  0  0  0  0  0  0  0  # atno 8780 bound_to 2347
  -30.3443   -8.2911   -9.2616 LP  0  0  0  0  0  0  0  0  0  0  0  0  # atno 8787 bound_to 380 
  -30.7578   -9.0672   -7.8857 LP  0  0  0  0  0  0  0  0  0  0  0  0  # atno 8788 bound_to 380 

$$$$
