unknown|11k_best|sdf|8335|dock4
  -GOLD-   3 721 1533D 1   1.00000     0.00000

 28 31  0  0  0  0  0  0  0  0  1 V2000
  -50.6366  -17.3831  -17.7190 C   0  0  0  0  0  0  0  0  0  0  0  0
  -49.3800  -17.9970  -17.2836 C   0  0  0  0  0  0  0  0  0  0  0  0
  -48.7631  -19.0138  -17.9989 C   0  0  0  0  0  0  0  0  0  0  0  0
  -47.4183  -19.3042  -17.8698 C   0  0  0  0  0  0  0  0  0  0  0  0
  -46.7013  -18.7566  -16.8235 C   0  0  0  0  0  0  0  0  0  0  0  0
  -45.3949  -18.7638  -16.7606 O   0  0  0  0  0  0  0  0  0  0  0  0
  -44.6733  -18.0279  -15.9687 C   0  0  0  0  0  0  0  0  0  0  0  0
  -43.4536  -18.3495  -15.8656 O   0  0  0  0  0  0  0  0  0  0  0  0
  -45.2041  -16.9661  -15.2404 C   0  0  0  0  0  0  0  0  0  0  0  0
  -44.6046  -15.7883  -14.9050 C   0  0  0  0  0  0  0  0  0  0  0  0
  -45.3143  -15.0463  -14.0060 C   0  0  0  0  0  0  0  0  0  0  0  0
  -44.8992  -13.9952  -13.0750 C   0  0  0  0  0  0  0  0  0  0  0  0
  -43.6604  -13.7476  -13.0006 O   0  0  0  0  0  0  0  0  0  0  0  0
  -45.7814  -12.8756  -12.9282 N   0  0  0  0  0  0  0  0  0  0  0  0
  -45.2972  -11.5558  -12.5302 C   0  0  0  0  0  0  0  0  0  0  0  0
  -45.0370  -11.6495  -11.0454 C   0  0  0  0  0  0  0  0  0  0  0  0
  -43.8372  -10.7484  -10.7606 C   0  0  0  0  0  0  0  0  0  0  0  0
  -43.1488  -11.3497   -9.6907 N   0  0  0  0  0  0  0  0  0  0  0  0
  -42.7325  -12.7027   -9.8596 C   0  0  0  0  0  0  0  0  0  0  0  0
  -41.2203  -12.6428   -9.9895 C   0  0  0  0  0  0  0  0  0  0  0  0
  -40.8535  -11.2778  -10.4382 C   0  0  0  0  0  0  0  0  0  0  0  0
  -40.9547  -10.2447   -9.1830 C   0  0  2  0  0  0  0  0  0  0  0  0
  -40.2933  -11.3053   -8.1295 C   0  0  0  0  0  0  0  0  0  0  0  0
  -42.4702  -10.6395   -8.7473 C   0  0  0  0  0  0  0  0  0  0  0  0
  -46.9136  -15.4047  -14.5223 S   0  0  0  0  0  0  0  0  0  0  0  0
  -46.5766  -16.8309  -15.4094 C   0  0  0  0  0  0  0  0  0  0  0  0
  -47.3393  -17.8291  -16.0078 C   0  0  0  0  0  0  0  0  0  0  0  0
  -48.6899  -17.5463  -16.1648 C   0  0  0  0  0  0  0  0  0  0  0  0
  1  2  1  0  0  0  0
  2  3  2  0  0  0  0
  3  4  1  0  0  0  0
  4  5  2  0  0  0  0
  5  6  1  0  0  0  0
  6  7  1  0  0  0  0
  7  8  2  0  0  0  0
  7  9  1  0  0  0  0
  9 10  1  0  0  0  0
 10 11  2  0  0  0  0
 11 12  1  0  0  0  0
 12 13  2  0  0  0  0
 12 14  1  0  0  0  0
 14 15  1  0  0  0  0
 15 16  1  0  0  0  0
 16 17  1  0  0  0  0
 17 18  1  0  0  0  0
 18 19  1  0  0  0  0
 19 20  1  0  0  0  0
 20 21  1  0  0  0  0
 21 22  1  0  0  0  0
 22 23  1  0  0  0  0
 22 24  1  0  0  0  0
 11 25  1  0  0  0  0
 25 26  1  0  0  0  0
 26 27  1  0  0  0  0
 27 28  2  0  0  0  0
 28  2  1  0  0  0  0
 27  5  1  0  0  0  0
 26  9  2  0  0  0  0
 24 18  1  0  0  0  0
M  END
>  <zinc_id>  (335) 
ZINC000004939786

>  <smiles>  (335) 
Cc1ccc2oc(=O)c3cc(C(=O)NCCCN4CCC[C@H](C)C4)sc3c2c1

>  <source_line>  (335) 
335

>  <source_data>  (335) 
ZINC000004939786

>  <source_name>  (335) 


>  <source_label>  (335) 
ZINC000004939786

>  <found_by>  (335) 
ZINC

> <Gold.Version>
5.8.1

> <Gold.Id.Protein>
ID|ID_protein|mol2

> <Gold.Goldscore.Fitness>
67.4185

> <Gold.Goldscore.Internal.Vdw>
1.3308

> <Gold.Goldscore.Internal.Torsion>
-4.6708

> <Gold.Goldscore.External.Vdw>
47.8242

> <Gold.Goldscore.Internal.HBond>
0.0000

> <Gold.Goldscore.External.HBond>
4.1153

> <Gold.Goldscore.Internal.Correction>
-0.8850

> <Gold.Goldscore.Hbonds>
donor molecule, donor type, donor heavy atom, donor atom, acceptor molecule, acceptor atom, score
      P1  H   441  4840       L1    14  0.38
      P1  H  1819  6078       L1     6  0.16

> <Gold.Goldscore.Internal.Vdw.Weighted>
1.3308

> <Gold.Goldscore.Internal.Torsion.Weighted>
-4.6708

> <Gold.Goldscore.External.Vdw.Weighted>
65.7582

> <Gold.Goldscore.Internal.HBond.Weighted>
0.0000

> <Gold.Goldscore.External.HBond.Weighted>
4.1153

> <Gold.Goldscore.Internal.Correction.Weighted>
-0.8850

> <Gold.Protein.RotatedTorsions>
[ 4464  112  111  109 ] final -114.11 input   60.00 | X-H torsion
[ 4839  441  440  439 ] final   51.13 input   60.00 | X-H torsion
[ 4985  758  757  756 ] final  -62.52 input   60.00 | X-H torsion
[ 5271 1023 1022 1020 ] final  108.92 input   60.00 | X-H torsion
[ 6036 1776 1775 1774 ] final   25.30 input   60.00 | X-H torsion
[ 6078 1819 1818 1817 ] final -105.95 input   60.00 | X-H torsion
[ 6166 1916 1915 1913 ] final -152.68 input   60.00 | X-H torsion
[ 4818   65   64   63 ] final   65.48 input   60.00 | X-H torsion
[ 6268 1997 1996 1994 ] final   -1.26 input   60.00 | X-H torsion
[ 8592   72   71   70 ] final  141.48 input   60.00 | X-H torsion
[ 4356  100   99   97 ] final   32.79 input   60.00 | X-H torsion
[ 8510  202  201  200 ] final   64.41 input   60.00 | X-H torsion
[ 5330 1065 1064 1063 ] final  -23.60 input   60.00 | X-H torsion
[ 6640 2347 2346 2344 ] final   90.97 input   60.00 | X-H torsion
[ 4452  380  379  378 ] final  -20.86 input   60.00 | X-H torsion
[ 4500  391  390  389 ] final  -74.54 input   60.00 | X-H torsion

> <Gold.Protein.ActiveResidues>
 THR8    THR9    PRO10   ILE11   TYR12   TYR13   VAL14   ASN15   ALA16   HIS19  
 HIS22   SER25   VAL29   MET46   THR47   GLY48   THR49   ASP50   GLU51   HIS52  
 GLY53   GLN54   LYS55   VAL56   ALA57   GLU58   THR71   PHE78   ILE93   THR95  
 THR96   HIS100  GLU101  VAL104  TRP108  TYR126  VAL128  SER129  ASP130  GLU131 
 SER132  LEU210  SER211  ILE212  SER213  ARG214  LYS215  ARG216  SER218  VAL219 
 MET220  ASN221  TRP222  SER223  ILE224  PRO225  VAL226  HIS232  CYS233  ILE234 
 TYR235  VAL236  TRP237  LEU238  ASP239  ALA240  LEU241  PHE242  ASN243  TYR244 
 TYR245  THR246  HIS275  VAL276  VAL277  GLY278  LYS279  ASP280  ILE281  LEU282 
 LYS283  PHE284  HIS285  ALA286  ILE287  TYR288  TRP289  PRO290  PHE292  LEU304 
 TRP309 

> <Gold.Protein.RotatedAtoms>
  -33.2164   -8.0600   -5.3565 H   0  0  0  0  0  0  0  0  0  0  0  0  # atno 4356 bound_to 100 
  -31.2185   -9.7188   -9.2446 H   0  0  0  0  0  0  0  0  0  0  0  0  # atno 4452 bound_to 380 
  -45.1922  -10.4608  -16.6996 H   0  0  0  0  0  0  0  0  0  0  0  0  # atno 4464 bound_to 112 
  -33.6309  -10.4454  -16.0467 H   0  0  0  0  0  0  0  0  0  0  0  0  # atno 4500 bound_to 391 
  -31.4755  -15.1191   -3.3191 H   0  0  0  0  0  0  0  0  0  0  0  0  # atno 4818 bound_to 65  
  -48.8849  -10.9933  -14.5579 H   0  0  0  0  0  0  0  0  0  0  0  0  # atno 4839 bound_to 441 
  -47.7993  -11.5778  -13.4501 H   0  0  0  0  0  0  0  0  0  0  0  0  # atno 4840 bound_to 441 
  -49.2917  -11.0557  -12.9523 H   0  0  0  0  0  0  0  0  0  0  0  0  # atno 4841 bound_to 441 
  -37.9700  -17.5902  -17.4327 H   0  0  0  0  0  0  0  0  0  0  0  0  # atno 4985 bound_to 758 
  -54.5153  -17.4771  -15.1711 H   0  0  0  0  0  0  0  0  0  0  0  0  # atno 5271 bound_to 1023
  -53.8214  -15.8569   -8.2466 H   0  0  0  0  0  0  0  0  0  0  0  0  # atno 5330 bound_to 1065
  -54.5731  -16.1608  -18.5305 H   0  0  0  0  0  0  0  0  0  0  0  0  # atno 6036 bound_to 1776
  -45.2054  -17.8494  -18.2350 H   0  0  0  0  0  0  0  0  0  0  0  0  # atno 6078 bound_to 1819
  -49.2197  -15.4542  -10.7086 H   0  0  0  0  0  0  0  0  0  0  0  0  # atno 6166 bound_to 1916
  -34.2923  -14.9772   -4.8708 H   0  0  0  0  0  0  0  0  0  0  0  0  # atno 6268 bound_to 1997
  -49.0268  -20.4769   -1.0692 H   0  0  0  0  0  0  0  0  0  0  0  0  # atno 6640 bound_to 2347
  -35.2621   -5.9028   -2.2622 H   0  0  0  0  0  0  0  0  0  0  0  0  # atno 8510 bound_to 202 
  -31.4455   -8.4835   -4.2632 H   0  0  0  0  0  0  0  0  0  0  0  0  # atno 8592 bound_to 72  
  -46.2166  -10.9127  -15.5187 LP  0  0  0  0  0  0  0  0  0  0  0  0  # atno 8618 bound_to 112 
  -45.0005  -11.9038  -15.9722 LP  0  0  0  0  0  0  0  0  0  0  0  0  # atno 8619 bound_to 112 
  -38.6187  -17.3690  -15.9568 LP  0  0  0  0  0  0  0  0  0  0  0  0  # atno 8637 bound_to 758 
  -37.2334  -18.2173  -16.1242 LP  0  0  0  0  0  0  0  0  0  0  0  0  # atno 8638 bound_to 758 
  -54.2404  -17.4264  -13.5679 LP  0  0  0  0  0  0  0  0  0  0  0  0  # atno 8642 bound_to 1023
  -54.7136  -16.0797  -14.3610 LP  0  0  0  0  0  0  0  0  0  0  0  0  # atno 8643 bound_to 1023
  -53.3265  -16.9187  -17.8096 LP  0  0  0  0  0  0  0  0  0  0  0  0  # atno 8662 bound_to 1776
  -54.8551  -17.4357  -17.5593 LP  0  0  0  0  0  0  0  0  0  0  0  0  # atno 8663 bound_to 1776
  -46.5116  -17.8307  -19.2054 LP  0  0  0  0  0  0  0  0  0  0  0  0  # atno 8672 bound_to 1819
  -45.1769  -16.9819  -19.6115 LP  0  0  0  0  0  0  0  0  0  0  0  0  # atno 8673 bound_to 1819
  -50.6353  -15.7455  -11.4563 LP  0  0  0  0  0  0  0  0  0  0  0  0  # atno 8684 bound_to 1916
  -49.4050  -15.0494  -12.2738 LP  0  0  0  0  0  0  0  0  0  0  0  0  # atno 8685 bound_to 1916
  -30.3982  -16.1252   -2.6297 LP  0  0  0  0  0  0  0  0  0  0  0  0  # atno 8712 bound_to 65  
  -31.4005  -16.6729   -3.7967 LP  0  0  0  0  0  0  0  0  0  0  0  0  # atno 8713 bound_to 65  
  -35.3072  -15.9199   -4.0169 LP  0  0  0  0  0  0  0  0  0  0  0  0  # atno 8724 bound_to 1997
  -35.6220  -15.5864   -5.5842 LP  0  0  0  0  0  0  0  0  0  0  0  0  # atno 8725 bound_to 1997
  -32.3675   -9.6178   -3.5482 LP  0  0  0  0  0  0  0  0  0  0  0  0  # atno 8747 bound_to 72  
  -32.7124   -9.1174   -5.0639 LP  0  0  0  0  0  0  0  0  0  0  0  0  # atno 8748 bound_to 72  
  -32.6701   -6.5958   -5.8104 LP  0  0  0  0  0  0  0  0  0  0  0  0  # atno 8749 bound_to 100 
  -32.0087   -7.9489   -6.4415 LP  0  0  0  0  0  0  0  0  0  0  0  0  # atno 8750 bound_to 100 
  -34.9843   -7.0392   -1.1310 LP  0  0  0  0  0  0  0  0  0  0  0  0  # atno 8754 bound_to 202 
  -35.6305   -7.4574   -2.5712 LP  0  0  0  0  0  0  0  0  0  0  0  0  # atno 8755 bound_to 202 
  -54.3351  -15.5055   -6.7430 LP  0  0  0  0  0  0  0  0  0  0  0  0  # atno 8775 bound_to 1065
  -54.6026  -14.4572   -7.9662 LP  0  0  0  0  0  0  0  0  0  0  0  0  # atno 8776 bound_to 1065
  -49.5774  -21.4025   -2.2891 LP  0  0  0  0  0  0  0  0  0  0  0  0  # atno 8779 bound_to 2347
  -49.0907  -19.8708   -2.5781 LP  0  0  0  0  0  0  0  0  0  0  0  0  # atno 8780 bound_to 2347
  -30.3733   -8.3320   -9.3466 LP  0  0  0  0  0  0  0  0  0  0  0  0  # atno 8787 bound_to 380 
  -30.7061   -8.9831   -7.8865 LP  0  0  0  0  0  0  0  0  0  0  0  0  # atno 8788 bound_to 380 

$$$$
