unknown|11k_best|sdf|4924|dock6
  -GOLD-   3 421 2563D 1   1.00000     0.00000

 31 34  0  0  0  0  0  0  0  0  1 V2000
  -43.0075  -16.1900  -14.5793 C   0  0  0  0  0  0  0  0  0  0  0  0
  -44.1316  -16.6746  -15.3115 O   0  0  0  0  0  0  0  0  0  0  0  0
  -45.2966  -15.9122  -15.1820 C   0  0  0  0  0  0  0  0  0  0  0  0
  -45.4432  -14.9273  -14.2344 C   0  0  0  0  0  0  0  0  0  0  0  0
  -46.6964  -14.4630  -13.8575 C   0  0  0  0  0  0  0  0  0  0  0  0
  -46.9751  -14.0365  -12.4510 C   0  0  0  0  0  0  0  0  0  0  0  0
  -46.3834  -12.7287  -12.2726 N   0  0  0  0  0  0  0  0  0  0  0  0
  -44.9876  -12.5687  -12.0239 C   0  0  0  0  0  0  0  0  0  0  0  0
  -44.4274  -11.3135  -11.8253 C   0  0  0  0  0  0  0  0  0  0  0  0
  -43.3224  -11.2207  -10.9994 C   0  0  0  0  0  0  0  0  0  0  0  0
  -42.9432  -12.3295  -10.2524 C   0  0  0  0  0  0  0  0  0  0  0  0
  -41.6635  -12.2136   -9.5419 C   0  0  0  0  0  0  0  0  0  0  0  0
  -41.1654  -13.2629   -8.8438 N   0  0  0  0  0  0  0  0  0  0  0  0
  -40.1204  -12.8232   -8.1022 C   0  0  0  0  0  0  0  0  0  0  0  0
  -39.0551  -13.6582   -7.5713 C   0  0  0  0  0  0  0  0  0  0  0  0
  -38.9656  -14.9773   -7.9650 C   0  0  0  0  0  0  0  0  0  0  0  0
  -38.0065  -15.8331   -7.4928 C   0  0  0  0  0  0  0  0  0  0  0  0
  -37.1860  -15.3599   -6.4824 C   0  0  0  0  0  0  0  0  0  0  0  0
  -37.3173  -14.0661   -6.0272 C   0  0  0  0  0  0  0  0  0  0  0  0
  -38.4108  -13.2983   -6.4070 C   0  0  0  0  0  0  0  0  0  0  0  0
  -40.2240  -11.4912   -8.1139 N   0  0  0  0  0  0  0  0  0  0  0  0
  -41.1989  -11.1518   -8.9057 O   0  0  0  0  0  0  0  0  0  0  0  0
  -43.2468  -13.5260  -10.8128 N   0  0  0  0  0  0  0  0  0  0  0  0
  -44.1711  -13.6169  -11.7680 N   0  0  0  0  0  0  0  0  0  0  0  0
  -47.7957  -14.8699  -14.6028 C   0  0  0  0  0  0  0  0  0  0  0  0
  -47.5778  -15.6413  -15.7363 C   0  0  0  0  0  0  0  0  0  0  0  0
  -48.5225  -15.7658  -16.7499 O   0  0  0  0  0  0  0  0  0  0  0  0
  -49.8114  -15.2214  -16.5640 C   0  0  0  0  0  0  0  0  0  0  0  0
  -46.3980  -16.3459  -15.9094 C   0  0  0  0  0  0  0  0  0  0  0  0
  -46.4271  -17.6400  -16.4377 O   0  0  0  0  0  0  0  0  0  0  0  0
  -47.6991  -18.1198  -16.8634 C   0  0  0  0  0  0  0  0  0  0  0  0
  1  2  1  0  0  0  0
  2  3  1  0  0  0  0
  3  4  2  0  0  0  0
  4  5  1  0  0  0  0
  5  6  1  0  0  0  0
  6  7  1  0  0  0  0
  7  8  1  0  0  0  0
  8  9  2  0  0  0  0
  9 10  1  0  0  0  0
 10 11  2  0  0  0  0
 11 12  1  0  0  0  0
 12 13  2  0  0  0  0
 13 14  1  0  0  0  0
 14 15  1  0  0  0  0
 15 16  2  0  0  0  0
 16 17  1  0  0  0  0
 17 18  2  0  0  0  0
 18 19  1  0  0  0  0
 19 20  2  0  0  0  0
 14 21  2  0  0  0  0
 21 22  1  0  0  0  0
 11 23  1  0  0  0  0
 23 24  2  0  0  0  0
  5 25  2  0  0  0  0
 25 26  1  0  0  0  0
 26 27  1  0  0  0  0
 27 28  1  0  0  0  0
 26 29  2  0  0  0  0
 29 30  1  0  0  0  0
 30 31  1  0  0  0  0
 29  3  1  0  0  0  0
 24  8  1  0  0  0  0
 22 12  1  0  0  0  0
 20 15  1  0  0  0  0
M  END
>  <zinc_id>  (924) 
ZINC000064837843

>  <smiles>  (924) 
COc1cc(CNc2ccc(-c3nc(-c4ccccc4)no3)nn2)cc(OC)c1OC

>  <source_line>  (924) 
924

>  <source_data>  (924) 
ZINC000064837843

>  <source_name>  (924) 


>  <source_label>  (924) 
ZINC000064837843

>  <found_by>  (924) 
ZINC

> <Gold.Version>
5.8.1

> <Gold.Id.Protein>
ID|ID_protein|mol2

> <Gold.Goldscore.Fitness>
80.5658

> <Gold.Goldscore.Internal.Vdw>
0.0331

> <Gold.Goldscore.Internal.Torsion>
-3.7407

> <Gold.Goldscore.External.Vdw>
51.0941

> <Gold.Goldscore.Internal.HBond>
0.0000

> <Gold.Goldscore.External.HBond>
11.1842

> <Gold.Goldscore.Internal.Correction>
-2.8348

> <Gold.Goldscore.Hbonds>
donor molecule, donor type, donor heavy atom, donor atom, acceptor molecule, acceptor atom, score
      P1  H   426  4822       L1    27  0.14
      P1  H   441  4840       L1     7  1.00
      P1  H  1819  6078       L1    30  0.45

> <Gold.Goldscore.Internal.Vdw.Weighted>
0.0331

> <Gold.Goldscore.Internal.Torsion.Weighted>
-3.7407

> <Gold.Goldscore.External.Vdw.Weighted>
70.2544

> <Gold.Goldscore.Internal.HBond.Weighted>
0.0000

> <Gold.Goldscore.External.HBond.Weighted>
11.1842

> <Gold.Goldscore.Internal.Correction.Weighted>
-2.8348

> <Gold.Protein.RotatedTorsions>
[ 4464  112  111  109 ] final    5.67 input   60.00 | X-H torsion
[ 4839  441  440  439 ] final   63.44 input   60.00 | X-H torsion
[ 4985  758  757  756 ] final   80.67 input   60.00 | X-H torsion
[ 5271 1023 1022 1020 ] final  -56.80 input   60.00 | X-H torsion
[ 6036 1776 1775 1774 ] final   28.26 input   60.00 | X-H torsion
[ 6078 1819 1818 1817 ] final -138.07 input   60.00 | X-H torsion
[ 6166 1916 1915 1913 ] final  176.37 input   60.00 | X-H torsion
[ 4818   65   64   63 ] final  -78.76 input   60.00 | X-H torsion
[ 6268 1997 1996 1994 ] final   37.98 input   60.00 | X-H torsion
[ 8592   72   71   70 ] final  -43.78 input   60.00 | X-H torsion
[ 4356  100   99   97 ] final   56.84 input   60.00 | X-H torsion
[ 8510  202  201  200 ] final  -59.77 input   60.00 | X-H torsion
[ 5330 1065 1064 1063 ] final  -51.33 input   60.00 | X-H torsion
[ 6640 2347 2346 2344 ] final   70.95 input   60.00 | X-H torsion
[ 4452  380  379  378 ] final -141.30 input   60.00 | X-H torsion
[ 4500  391  390  389 ] final   46.33 input   60.00 | X-H torsion

> <Gold.Protein.ActiveResidues>
 THR8    THR9    PRO10   ILE11   TYR12   TYR13   VAL14   ASN15   ALA16   HIS19  
 HIS22   SER25   VAL29   MET46   THR47   GLY48   THR49   ASP50   GLU51   HIS52  
 GLY53   GLN54   LYS55   VAL56   ALA57   GLU58   THR71   PHE78   ILE93   THR95  
 THR96   HIS100  GLU101  VAL104  TRP108  TYR126  VAL128  SER129  ASP130  GLU131 
 SER132  LEU210  SER211  ILE212  SER213  ARG214  LYS215  ARG216  SER218  VAL219 
 MET220  ASN221  TRP222  SER223  ILE224  PRO225  VAL226  HIS232  CYS233  ILE234 
 TYR235  VAL236  TRP237  LEU238  ASP239  ALA240  LEU241  PHE242  ASN243  TYR244 
 TYR245  THR246  HIS275  VAL276  VAL277  GLY278  LYS279  ASP280  ILE281  LEU282 
 LYS283  PHE284  HIS285  ALA286  ILE287  TYR288  TRP289  PRO290  PHE292  LEU304 
 TRP309 

> <Gold.Protein.RotatedAtoms>
  -33.0113   -8.3307   -5.5485 H   0  0  0  0  0  0  0  0  0  0  0  0  # atno 4356 bound_to 100 
  -30.3718   -8.3347   -9.3371 H   0  0  0  0  0  0  0  0  0  0  0  0  # atno 4452 bound_to 380 
  -45.0002  -11.8960  -15.9739 H   0  0  0  0  0  0  0  0  0  0  0  0  # atno 4464 bound_to 112 
  -35.0060  -11.3011  -16.2168 H   0  0  0  0  0  0  0  0  0  0  0  0  # atno 4500 bound_to 391 
  -30.4437  -16.4771   -2.8025 H   0  0  0  0  0  0  0  0  0  0  0  0  # atno 4818 bound_to 65  
  -48.6961  -11.0626  -14.5984 H   0  0  0  0  0  0  0  0  0  0  0  0  # atno 4839 bound_to 441 
  -47.8691  -11.5770  -13.2572 H   0  0  0  0  0  0  0  0  0  0  0  0  # atno 4840 bound_to 441 
  -49.4107  -10.9873  -13.1048 H   0  0  0  0  0  0  0  0  0  0  0  0  # atno 4841 bound_to 441 
  -37.4400  -18.1223  -15.8226 H   0  0  0  0  0  0  0  0  0  0  0  0  # atno 4985 bound_to 758 
  -54.4011  -16.7200  -13.4782 H   0  0  0  0  0  0  0  0  0  0  0  0  # atno 5271 bound_to 1023
  -53.7997  -16.0698   -7.8522 H   0  0  0  0  0  0  0  0  0  0  0  0  # atno 5330 bound_to 1065
  -54.6178  -16.1770  -18.5224 H   0  0  0  0  0  0  0  0  0  0  0  0  # atno 6036 bound_to 1776
  -45.6772  -18.0632  -18.2308 H   0  0  0  0  0  0  0  0  0  0  0  0  # atno 6078 bound_to 1819
  -49.6580  -15.6543  -10.5771 H   0  0  0  0  0  0  0  0  0  0  0  0  # atno 6166 bound_to 1916
  -34.5821  -14.9729   -5.4288 H   0  0  0  0  0  0  0  0  0  0  0  0  # atno 6268 bound_to 1997
  -49.1346  -20.7839   -1.0674 H   0  0  0  0  0  0  0  0  0  0  0  0  # atno 6640 bound_to 2347
  -35.0004   -7.1024   -1.1531 H   0  0  0  0  0  0  0  0  0  0  0  0  # atno 8510 bound_to 202 
  -32.9145   -9.6330   -4.4008 H   0  0  0  0  0  0  0  0  0  0  0  0  # atno 8592 bound_to 72  
  -45.1944  -10.4551  -16.7047 LP  0  0  0  0  0  0  0  0  0  0  0  0  # atno 8618 bound_to 112 
  -46.2162  -10.9159  -15.5171 LP  0  0  0  0  0  0  0  0  0  0  0  0  # atno 8619 bound_to 112 
  -37.6541  -17.7949  -17.4022 LP  0  0  0  0  0  0  0  0  0  0  0  0  # atno 8637 bound_to 758 
  -38.7317  -17.2555  -16.3002 LP  0  0  0  0  0  0  0  0  0  0  0  0  # atno 8638 bound_to 758 
  -54.7586  -16.3781  -15.0285 LP  0  0  0  0  0  0  0  0  0  0  0  0  # atno 8642 bound_to 1023
  -54.3104  -17.8903  -14.6053 LP  0  0  0  0  0  0  0  0  0  0  0  0  # atno 8643 bound_to 1023
  -53.3194  -16.8805  -17.8388 LP  0  0  0  0  0  0  0  0  0  0  0  0  # atno 8662 bound_to 1776
  -54.8171  -17.4577  -17.5384 LP  0  0  0  0  0  0  0  0  0  0  0  0  # atno 8663 bound_to 1776
  -46.3686  -17.5220  -19.6009 LP  0  0  0  0  0  0  0  0  0  0  0  0  # atno 8672 bound_to 1819
  -44.8448  -17.0753  -19.2203 LP  0  0  0  0  0  0  0  0  0  0  0  0  # atno 8673 bound_to 1819
  -50.5656  -15.5790  -11.9257 LP  0  0  0  0  0  0  0  0  0  0  0  0  # atno 8684 bound_to 1916
  -49.0333  -15.0145  -11.9367 LP  0  0  0  0  0  0  0  0  0  0  0  0  # atno 8685 bound_to 1916
  -31.6298  -16.3712   -3.9115 LP  0  0  0  0  0  0  0  0  0  0  0  0  # atno 8712 bound_to 65  
  -31.2080  -15.0594   -3.0352 LP  0  0  0  0  0  0  0  0  0  0  0  0  # atno 8713 bound_to 65  
  -34.7671  -15.5991   -3.9382 LP  0  0  0  0  0  0  0  0  0  0  0  0  # atno 8724 bound_to 1997
  -35.8703  -15.9116   -5.1009 LP  0  0  0  0  0  0  0  0  0  0  0  0  # atno 8725 bound_to 1997
  -31.9139   -8.4925   -4.9891 LP  0  0  0  0  0  0  0  0  0  0  0  0  # atno 8747 bound_to 72  
  -31.6866   -9.0849   -3.4844 LP  0  0  0  0  0  0  0  0  0  0  0  0  # atno 8748 bound_to 72  
  -32.9517   -6.7045   -5.5588 LP  0  0  0  0  0  0  0  0  0  0  0  0  # atno 8749 bound_to 100 
  -31.9338   -7.5676   -6.4998 LP  0  0  0  0  0  0  0  0  0  0  0  0  # atno 8750 bound_to 100 
  -35.6414   -7.4075   -2.6173 LP  0  0  0  0  0  0  0  0  0  0  0  0  # atno 8754 bound_to 202 
  -35.2370   -5.8809   -2.2019 LP  0  0  0  0  0  0  0  0  0  0  0  0  # atno 8755 bound_to 202 
  -54.5367  -15.1021   -6.7712 LP  0  0  0  0  0  0  0  0  0  0  0  0  # atno 8775 bound_to 1065
  -54.4229  -14.6462   -8.3352 LP  0  0  0  0  0  0  0  0  0  0  0  0  # atno 8776 bound_to 1065
  -49.5690  -21.2335   -2.5698 LP  0  0  0  0  0  0  0  0  0  0  0  0  # atno 8779 bound_to 2347
  -48.9905  -19.7306   -2.2993 LP  0  0  0  0  0  0  0  0  0  0  0  0  # atno 8780 bound_to 2347
  -30.7099   -8.9893   -7.8861 LP  0  0  0  0  0  0  0  0  0  0  0  0  # atno 8787 bound_to 380 
  -31.2223   -9.7196   -9.2539 LP  0  0  0  0  0  0  0  0  0  0  0  0  # atno 8788 bound_to 380 

$$$$
