unknown|11k_best|sdf|1995|dock6
  -GOLD-   3 12112343D 1   1.00000     0.00000

 31 35  0  0  0  0  0  0  0  0  1 V2000
  -43.3722  -19.4743  -17.2074 O   0  0  0  0  0  0  0  0  0  0  0  0
  -43.7096  -18.7033  -16.2868 C   0  0  0  0  0  0  0  0  0  0  0  0
  -42.8526  -17.9396  -15.4300 N   0  0  0  0  0  0  0  0  0  0  0  0
  -43.5831  -16.8149  -14.9264 C   0  0  0  0  0  0  0  0  0  0  0  0
  -43.2060  -15.5777  -14.4183 C   0  0  0  0  0  0  0  0  0  0  0  0
  -44.2140  -14.7079  -14.0228 C   0  0  0  0  0  0  0  0  0  0  0  0
  -45.5301  -15.1305  -14.1061 C   0  0  0  0  0  0  0  0  0  0  0  0
  -46.7757  -14.0516  -13.5548 S   0  0  0  0  0  0  0  0  0  0  0  0
  -47.9894  -14.2080  -14.4355 O   0  0  0  0  0  0  0  0  0  0  0  0
  -46.3652  -12.6177  -13.6235 O   0  0  0  0  0  0  0  0  0  0  0  0
  -47.2188  -14.4459  -11.9241 N   0  0  0  0  0  0  0  0  0  0  0  0
  -46.4239  -14.0316  -10.8347 C   0  0  0  0  0  0  0  0  0  0  0  0
  -45.2747  -13.2938  -10.9564 C   0  0  0  0  0  0  0  0  0  0  0  0
  -44.8860  -12.5425   -9.8614 C   0  0  0  0  0  0  0  0  0  0  0  0
  -45.3171  -12.8103   -8.5769 C   0  0  0  0  0  0  0  0  0  0  0  0
  -44.4480  -12.7416   -7.4835 O   0  0  0  0  0  0  0  0  0  0  0  0
  -44.6590  -13.4444   -6.2861 C   0  0  0  0  0  0  0  0  0  0  0  0
  -44.0684  -14.8184   -6.3229 C   0  0  0  0  0  0  0  0  0  0  0  0
  -44.4585  -15.7752   -7.2265 C   0  0  0  0  0  0  0  0  0  0  0  0
  -43.5200  -16.6735   -7.7187 C   0  0  0  0  0  0  0  0  0  0  0  0
  -42.3094  -16.7867   -7.0496 C   0  0  0  0  0  0  0  0  0  0  0  0
  -42.1897  -16.1638   -5.8163 C   0  0  0  0  0  0  0  0  0  0  0  0
  -43.0674  -15.1814   -5.4300 C   0  0  0  0  0  0  0  0  0  0  0  0
  -46.3559  -13.7260   -8.4652 C   0  0  0  0  0  0  0  0  0  0  0  0
  -46.8419  -14.4155   -9.5696 C   0  0  0  0  0  0  0  0  0  0  0  0
  -45.9132  -16.2453  -14.8307 C   0  0  0  0  0  0  0  0  0  0  0  0
  -47.1042  -16.3142  -15.5305 C   0  0  0  0  0  0  0  0  0  0  0  0
  -47.2510  -17.2575  -16.5401 C   0  0  0  0  0  0  0  0  0  0  0  0
  -46.2198  -18.1437  -16.8277 C   0  0  0  0  0  0  0  0  0  0  0  0
  -45.0403  -18.1139  -16.0925 C   0  0  0  0  0  0  0  0  0  0  0  0
  -44.9123  -17.1667  -15.1028 C   0  0  0  0  0  0  0  0  0  0  0  0
  1  2  2  0  0  0  0
  2  3  1  0  0  0  0
  3  4  1  0  0  0  0
  4  5  2  0  0  0  0
  5  6  1  0  0  0  0
  6  7  2  0  0  0  0
  7  8  1  0  0  0  0
  8  9  2  0  0  0  0
  8 10  2  0  0  0  0
  8 11  1  0  0  0  0
 11 12  1  0  0  0  0
 12 13  2  0  0  0  0
 13 14  1  0  0  0  0
 14 15  2  0  0  0  0
 15 16  1  0  0  0  0
 16 17  1  0  0  0  0
 17 18  1  0  0  0  0
 18 19  2  0  0  0  0
 19 20  1  0  0  0  0
 20 21  2  0  0  0  0
 21 22  1  0  0  0  0
 22 23  2  0  0  0  0
 15 24  1  0  0  0  0
 24 25  2  0  0  0  0
  7 26  1  0  0  0  0
 26 27  2  0  0  0  0
 27 28  1  0  0  0  0
 28 29  2  0  0  0  0
 29 30  1  0  0  0  0
 30 31  2  0  0  0  0
 30  2  1  0  0  0  0
 31  4  1  0  0  0  0
 25 12  1  0  0  0  0
 31 26  1  0  0  0  0
 23 18  1  0  0  0  0
M  END
>  <zinc_id>  (995) 
ZINC000008835895

>  <smiles>  (995) 
O=C1Nc2ccc(S(=O)(=O)Nc3ccc(OCc4ccccc4)cc3)c3cccc1c23

>  <source_line>  (995) 
995

>  <source_data>  (995) 
ZINC000008835895

>  <source_name>  (995) 


>  <source_label>  (995) 
ZINC000008835895

>  <found_by>  (995) 
ZINC

> <Gold.Version>
5.8.1

> <Gold.Id.Protein>
ID|ID_protein|mol2

> <Gold.Goldscore.Fitness>
90.2257

> <Gold.Goldscore.Internal.Vdw>
1.7006

> <Gold.Goldscore.Internal.Torsion>
-5.0336

> <Gold.Goldscore.External.Vdw>
58.8210

> <Gold.Goldscore.Internal.HBond>
0.0000

> <Gold.Goldscore.External.HBond>
12.1083

> <Gold.Goldscore.Internal.Correction>
-0.5715

> <Gold.Goldscore.Hbonds>
donor molecule, donor type, donor heavy atom, donor atom, acceptor molecule, acceptor atom, score
      P1  H   112  4464       L1    10  0.23
      P1  H   441  4839       L1    10  1.00
      P1  H  1822  6079       L1     1  0.63
      P1  H  1916  6166       L1    11  0.73

> <Gold.Goldscore.Internal.Vdw.Weighted>
1.7006

> <Gold.Goldscore.Internal.Torsion.Weighted>
-5.0336

> <Gold.Goldscore.External.Vdw.Weighted>
80.8789

> <Gold.Goldscore.Internal.HBond.Weighted>
0.0000

> <Gold.Goldscore.External.HBond.Weighted>
12.1083

> <Gold.Goldscore.Internal.Correction.Weighted>
-0.5715

> <Gold.Protein.RotatedTorsions>
[ 4464  112  111  109 ] final   61.98 input   60.00 | X-H torsion
[ 4839  441  440  439 ] final  151.43 input   60.00 | X-H torsion
[ 4985  758  757  756 ] final -104.32 input   60.00 | X-H torsion
[ 5271 1023 1022 1020 ] final   16.40 input   60.00 | X-H torsion
[ 6036 1776 1775 1774 ] final -133.86 input   60.00 | X-H torsion
[ 6078 1819 1818 1817 ] final   89.69 input   60.00 | X-H torsion
[ 6166 1916 1915 1913 ] final  -85.32 input   60.00 | X-H torsion
[ 4818   65   64   63 ] final -160.75 input   60.00 | X-H torsion
[ 6268 1997 1996 1994 ] final  127.96 input   60.00 | X-H torsion
[ 8592   72   71   70 ] final  -86.11 input   60.00 | X-H torsion
[ 4356  100   99   97 ] final   26.97 input   60.00 | X-H torsion
[ 8510  202  201  200 ] final   35.11 input   60.00 | X-H torsion
[ 5330 1065 1064 1063 ] final -164.34 input   60.00 | X-H torsion
[ 6640 2347 2346 2344 ] final    3.31 input   60.00 | X-H torsion
[ 4452  380  379  378 ] final  115.87 input   60.00 | X-H torsion
[ 4500  391  390  389 ] final   70.85 input   60.00 | X-H torsion

> <Gold.Protein.ActiveResidues>
 THR8    THR9    PRO10   ILE11   TYR12   TYR13   VAL14   ASN15   ALA16   HIS19  
 HIS22   SER25   VAL29   MET46   THR47   GLY48   THR49   ASP50   GLU51   HIS52  
 GLY53   GLN54   LYS55   VAL56   ALA57   GLU58   THR71   PHE78   ILE93   THR95  
 THR96   HIS100  GLU101  VAL104  TRP108  TYR126  VAL128  SER129  ASP130  GLU131 
 SER132  LEU210  SER211  ILE212  SER213  ARG214  LYS215  ARG216  SER218  VAL219 
 MET220  ASN221  TRP222  SER223  ILE224  PRO225  VAL226  HIS232  CYS233  ILE234 
 TYR235  VAL236  TRP237  LEU238  ASP239  ALA240  LEU241  PHE242  ASN243  TYR244 
 TYR245  THR246  HIS275  VAL276  VAL277  GLY278  LYS279  ASP280  ILE281  LEU282 
 LYS283  PHE284  HIS285  ALA286  ILE287  TYR288  TRP289  PRO290  PHE292  LEU304 
 TRP309 

> <Gold.Protein.RotatedAtoms>
  -33.2519   -7.9786   -5.3224 H   0  0  0  0  0  0  0  0  0  0  0  0  # atno 4356 bound_to 100 
  -30.5667   -8.7562   -7.9491 H   0  0  0  0  0  0  0  0  0  0  0  0  # atno 4452 bound_to 380 
  -45.6960  -11.7570  -15.4475 H   0  0  0  0  0  0  0  0  0  0  0  0  # atno 4464 bound_to 112 
  -35.2503  -11.0879  -16.4470 H   0  0  0  0  0  0  0  0  0  0  0  0  # atno 4500 bound_to 391 
  -31.2405  -16.7854   -3.6850 H   0  0  0  0  0  0  0  0  0  0  0  0  # atno 4818 bound_to 65  
  -47.7705  -11.5441  -13.7744 H   0  0  0  0  0  0  0  0  0  0  0  0  # atno 4839 bound_to 441 
  -49.0433  -11.1783  -12.7777 H   0  0  0  0  0  0  0  0  0  0  0  0  # atno 4840 bound_to 441 
  -49.1621  -10.9044  -14.4081 H   0  0  0  0  0  0  0  0  0  0  0  0  # atno 4841 bound_to 441 
  -38.4917  -17.3001  -17.1330 H   0  0  0  0  0  0  0  0  0  0  0  0  # atno 4985 bound_to 758 
  -54.2192  -17.7461  -13.8787 H   0  0  0  0  0  0  0  0  0  0  0  0  # atno 5271 bound_to 1023
  -54.4908  -15.2052   -6.7507 H   0  0  0  0  0  0  0  0  0  0  0  0  # atno 5330 bound_to 1065
  -53.6404  -17.3650  -17.4953 H   0  0  0  0  0  0  0  0  0  0  0  0  # atno 6036 bound_to 1776
  -46.2446  -17.4045  -19.7058 H   0  0  0  0  0  0  0  0  0  0  0  0  # atno 6078 bound_to 1819
  -48.8959  -15.0635  -11.6145 H   0  0  0  0  0  0  0  0  0  0  0  0  # atno 6166 bound_to 1916
  -35.7035  -15.6735   -5.4913 H   0  0  0  0  0  0  0  0  0  0  0  0  # atno 6268 bound_to 1997
  -49.5002  -21.4567   -1.7743 H   0  0  0  0  0  0  0  0  0  0  0  0  # atno 6640 bound_to 2347
  -35.0845   -5.9000   -1.8231 H   0  0  0  0  0  0  0  0  0  0  0  0  # atno 8510 bound_to 202 
  -32.8087   -9.2582   -4.9535 H   0  0  0  0  0  0  0  0  0  0  0  0  # atno 8592 bound_to 72  
  -44.7319  -11.2125  -16.6399 LP  0  0  0  0  0  0  0  0  0  0  0  0  # atno 8618 bound_to 112 
  -45.9779  -10.2986  -16.1120 LP  0  0  0  0  0  0  0  0  0  0  0  0  # atno 8619 bound_to 112 
  -38.1622  -17.7007  -15.5906 LP  0  0  0  0  0  0  0  0  0  0  0  0  # atno 8637 bound_to 758 
  -37.1644  -18.1777  -16.7921 LP  0  0  0  0  0  0  0  0  0  0  0  0  # atno 8638 bound_to 758 
  -54.6155  -16.1687  -13.9332 LP  0  0  0  0  0  0  0  0  0  0  0  0  # atno 8642 bound_to 1023
  -54.6366  -17.0664  -15.2972 LP  0  0  0  0  0  0  0  0  0  0  0  0  # atno 8643 bound_to 1023
  -55.1751  -17.0225  -17.9145 LP  0  0  0  0  0  0  0  0  0  0  0  0  # atno 8662 bound_to 1776
  -53.9456  -16.1192  -18.4969 LP  0  0  0  0  0  0  0  0  0  0  0  0  # atno 8663 bound_to 1776
  -44.7781  -17.1527  -19.0470 LP  0  0  0  0  0  0  0  0  0  0  0  0  # atno 8672 bound_to 1819
  -45.8639  -18.1080  -18.2887 LP  0  0  0  0  0  0  0  0  0  0  0  0  # atno 8673 bound_to 1819
  -49.9918  -15.7574  -10.6321 LP  0  0  0  0  0  0  0  0  0  0  0  0  # atno 8684 bound_to 1916
  -50.3746  -15.4310  -12.1856 LP  0  0  0  0  0  0  0  0  0  0  0  0  # atno 8685 bound_to 1916
  -31.6063  -15.2135   -3.4763 LP  0  0  0  0  0  0  0  0  0  0  0  0  # atno 8712 bound_to 65  
  -30.4290  -15.9066   -2.5817 LP  0  0  0  0  0  0  0  0  0  0  0  0  # atno 8713 bound_to 65  
  -34.3273  -14.9475   -5.0149 LP  0  0  0  0  0  0  0  0  0  0  0  0  # atno 8724 bound_to 1997
  -35.1807  -15.8575   -3.9613 LP  0  0  0  0  0  0  0  0  0  0  0  0  # atno 8725 bound_to 1997
  -31.5017   -8.4294   -4.4508 LP  0  0  0  0  0  0  0  0  0  0  0  0  # atno 8747 bound_to 72  
  -32.2053   -9.5256   -3.4661 LP  0  0  0  0  0  0  0  0  0  0  0  0  # atno 8748 bound_to 72  
  -32.5990   -6.5940   -5.8745 LP  0  0  0  0  0  0  0  0  0  0  0  0  # atno 8749 bound_to 100 
  -32.0441   -8.0328   -6.4117 LP  0  0  0  0  0  0  0  0  0  0  0  0  # atno 8750 bound_to 100 
  -35.1273   -7.4494   -1.3278 LP  0  0  0  0  0  0  0  0  0  0  0  0  # atno 8754 bound_to 202 
  -35.6664   -7.0500   -2.8166 LP  0  0  0  0  0  0  0  0  0  0  0  0  # atno 8755 bound_to 202 
  -54.4738  -14.5827   -8.2542 LP  0  0  0  0  0  0  0  0  0  0  0  0  # atno 8775 bound_to 1065
  -53.7899  -16.0364   -7.9615 LP  0  0  0  0  0  0  0  0  0  0  0  0  # atno 8776 bound_to 1065
  -49.2824  -20.2676   -2.8636 LP  0  0  0  0  0  0  0  0  0  0  0  0  # atno 8779 bound_to 2347
  -48.9089  -20.0189   -1.2935 LP  0  0  0  0  0  0  0  0  0  0  0  0  # atno 8780 bound_to 2347
  -31.2598   -9.8007   -8.9869 LP  0  0  0  0  0  0  0  0  0  0  0  0  # atno 8787 bound_to 380 
  -30.4761   -8.4837   -9.5509 LP  0  0  0  0  0  0  0  0  0  0  0  0  # atno 8788 bound_to 380 

$$$$
