unknown|11k_best|sdf|8285|dock8
  -GOLD-   3 721 0503D 1   1.00000     0.00000

 31 33  0  0  0  0  0  0  0  0  1 V2000
  -55.0456  -13.6877   -3.3281 C   0  0  0  0  0  0  0  0  0  0  0  0
  -54.6388  -13.1158   -4.6583 C   0  0  0  0  0  0  0  0  0  0  0  0
  -53.2650  -13.3165   -4.9425 O   0  0  0  0  0  0  0  0  0  0  0  0
  -52.6938  -14.5899   -5.0273 C   0  0  0  0  0  0  0  0  0  0  0  0
  -53.5041  -15.5582   -5.1481 O   0  0  0  0  0  0  0  0  0  0  0  0
  -51.3880  -14.7956   -5.6672 C   0  0  0  0  0  0  0  0  0  0  0  0
  -50.4547  -13.7803   -5.7839 C   0  0  0  0  0  0  0  0  0  0  0  0
  -49.5253  -13.8177   -6.8042 C   0  0  0  0  0  0  0  0  0  0  0  0
  -49.4410  -14.8723   -7.6966 C   0  0  0  0  0  0  0  0  0  0  0  0
  -48.8559  -14.7338   -8.9569 O   0  0  0  0  0  0  0  0  0  0  0  0
  -48.2376  -13.5058   -9.2569 C   0  0  0  0  0  0  0  0  0  0  0  0
  -47.8978  -13.3746  -10.6990 C   0  0  0  0  0  0  0  0  0  0  0  0
  -48.1786  -12.3592  -11.3791 O   0  0  0  0  0  0  0  0  0  0  0  0
  -47.4243  -14.5408  -11.3755 N   0  0  0  0  0  0  0  0  0  0  0  0
  -46.9246  -14.4654  -12.7360 C   0  0  0  0  0  0  0  0  0  0  0  0
  -46.8672  -15.8567  -13.3385 C   0  0  0  0  0  0  0  0  0  0  0  0
  -46.6026  -15.7154  -14.8060 C   0  0  0  0  0  0  0  0  0  0  0  0
  -45.4321  -16.4583  -15.2865 C   0  0  0  0  0  0  0  0  0  0  0  0
  -44.1891  -15.9025  -15.0077 C   0  0  0  0  0  0  0  0  0  0  0  0
  -43.0231  -16.6469  -15.0551 C   0  0  0  0  0  0  0  0  0  0  0  0
  -43.0396  -17.7567  -15.8867 C   0  0  0  0  0  0  0  0  0  0  0  0
  -44.2621  -18.3773  -16.0695 C   0  0  0  0  0  0  0  0  0  0  0  0
  -45.4322  -17.8159  -15.5750 C   0  0  0  0  0  0  0  0  0  0  0  0
  -47.7971  -15.8400  -15.6504 C   0  0  0  0  0  0  0  0  0  0  0  0
  -48.2490  -17.0232  -16.2011 C   0  0  0  0  0  0  0  0  0  0  0  0
  -49.2069  -16.9277  -17.2022 C   0  0  0  0  0  0  0  0  0  0  0  0
  -50.0555  -15.8330  -17.3093 C   0  0  0  0  0  0  0  0  0  0  0  0
  -49.8185  -14.7950  -16.4250 C   0  0  0  0  0  0  0  0  0  0  0  0
  -48.7280  -14.8098  -15.5828 C   0  0  0  0  0  0  0  0  0  0  0  0
  -50.3911  -15.8728   -7.5710 C   0  0  0  0  0  0  0  0  0  0  0  0
  -51.3097  -15.8420   -6.5581 C   0  0  0  0  0  0  0  0  0  0  0  0
  1  2  1  0  0  0  0
  2  3  1  0  0  0  0
  3  4  1  0  0  0  0
  4  5  2  0  0  0  0
  4  6  1  0  0  0  0
  6  7  2  0  0  0  0
  7  8  1  0  0  0  0
  8  9  2  0  0  0  0
  9 10  1  0  0  0  0
 10 11  1  0  0  0  0
 11 12  1  0  0  0  0
 12 13  2  0  0  0  0
 12 14  1  0  0  0  0
 14 15  1  0  0  0  0
 15 16  1  0  0  0  0
 16 17  1  0  0  0  0
 17 18  1  0  0  0  0
 18 19  2  0  0  0  0
 19 20  1  0  0  0  0
 20 21  2  0  0  0  0
 21 22  1  0  0  0  0
 22 23  2  0  0  0  0
 17 24  1  0  0  0  0
 24 25  2  0  0  0  0
 25 26  1  0  0  0  0
 26 27  2  0  0  0  0
 27 28  1  0  0  0  0
 28 29  2  0  0  0  0
  9 30  1  0  0  0  0
 30 31  2  0  0  0  0
 31  6  1  0  0  0  0
 23 18  1  0  0  0  0
 29 24  1  0  0  0  0
M  END
>  <zinc_id>  (285) 
ZINC000040159223

>  <smiles>  (285) 
CCOC(=O)c1ccc(OCC(=O)NCCC(c2ccccc2)c2ccccc2)cc1

>  <source_line>  (285) 
285

>  <source_data>  (285) 
ZINC000040159223

>  <source_name>  (285) 


>  <source_label>  (285) 
ZINC000040159223

>  <found_by>  (285) 
ZINC

> <Gold.Version>
5.8.1

> <Gold.Id.Protein>
ID|ID_protein|mol2

> <Gold.Goldscore.Fitness>
60.4432

> <Gold.Goldscore.Internal.Vdw>
1.9777

> <Gold.Goldscore.Internal.Torsion>
-5.0115

> <Gold.Goldscore.External.Vdw>
40.7489

> <Gold.Goldscore.Internal.HBond>
0.0000

> <Gold.Goldscore.External.HBond>
8.0399

> <Gold.Goldscore.Internal.Correction>
0.5928

> <Gold.Goldscore.Hbonds>
donor molecule, donor type, donor heavy atom, donor atom, acceptor molecule, acceptor atom, score
      P1  H   441  4841       L1    13  1.00
      P1  H  1916  6166       L1    10  0.98
      P1  H  1065  5330       L1     5  0.04

> <Gold.Goldscore.Internal.Vdw.Weighted>
1.9777

> <Gold.Goldscore.Internal.Torsion.Weighted>
-5.0115

> <Gold.Goldscore.External.Vdw.Weighted>
56.0298

> <Gold.Goldscore.Internal.HBond.Weighted>
0.0000

> <Gold.Goldscore.External.HBond.Weighted>
8.0399

> <Gold.Goldscore.Internal.Correction.Weighted>
0.5928

> <Gold.Protein.RotatedTorsions>
[ 4464  112  111  109 ] final   43.77 input   60.00 | X-H torsion
[ 4839  441  440  439 ] final   -3.27 input   60.00 | X-H torsion
[ 4985  758  757  756 ] final   84.86 input   60.00 | X-H torsion
[ 5271 1023 1022 1020 ] final  111.91 input   60.00 | X-H torsion
[ 6036 1776 1775 1774 ] final   93.31 input   60.00 | X-H torsion
[ 6078 1819 1818 1817 ] final  137.34 input   60.00 | X-H torsion
[ 6166 1916 1915 1913 ] final -162.74 input   60.00 | X-H torsion
[ 4818   65   64   63 ] final   83.50 input   60.00 | X-H torsion
[ 6268 1997 1996 1994 ] final   29.82 input   60.00 | X-H torsion
[ 8592   72   71   70 ] final -169.54 input   60.00 | X-H torsion
[ 4356  100   99   97 ] final -127.70 input   60.00 | X-H torsion
[ 8510  202  201  200 ] final   -2.16 input   60.00 | X-H torsion
[ 5330 1065 1064 1063 ] final -144.71 input   60.00 | X-H torsion
[ 6640 2347 2346 2344 ] final   92.41 input   60.00 | X-H torsion
[ 4452  380  379  378 ] final  131.27 input   60.00 | X-H torsion
[ 4500  391  390  389 ] final -139.53 input   60.00 | X-H torsion

> <Gold.Protein.ActiveResidues>
 THR8    THR9    PRO10   ILE11   TYR12   TYR13   VAL14   ASN15   ALA16   HIS19  
 HIS22   SER25   VAL29   MET46   THR47   GLY48   THR49   ASP50   GLU51   HIS52  
 GLY53   GLN54   LYS55   VAL56   ALA57   GLU58   THR71   PHE78   ILE93   THR95  
 THR96   HIS100  GLU101  VAL104  TRP108  TYR126  VAL128  SER129  ASP130  GLU131 
 SER132  LEU210  SER211  ILE212  SER213  ARG214  LYS215  ARG216  SER218  VAL219 
 MET220  ASN221  TRP222  SER223  ILE224  PRO225  VAL226  HIS232  CYS233  ILE234 
 TYR235  VAL236  TRP237  LEU238  ASP239  ALA240  LEU241  PHE242  ASN243  TYR244 
 TYR245  THR246  HIS275  VAL276  VAL277  GLY278  LYS279  ASP280  ILE281  LEU282 
 LYS283  PHE284  HIS285  ALA286  ILE287  TYR288  TRP289  PRO290  PHE292  LEU304 
 TRP309 

> <Gold.Protein.RotatedAtoms>
  -32.2120   -6.7833   -6.2321 H   0  0  0  0  0  0  0  0  0  0  0  0  # atno 4356 bound_to 100 
  -30.4546   -8.5650   -8.0665 H   0  0  0  0  0  0  0  0  0  0  0  0  # atno 4452 bound_to 380 
  -45.4613  -11.8874  -15.5730 H   0  0  0  0  0  0  0  0  0  0  0  0  # atno 4464 bound_to 112 
  -34.0565   -9.7438  -16.6286 H   0  0  0  0  0  0  0  0  0  0  0  0  # atno 4500 bound_to 391 
  -31.6344  -15.2580   -3.5227 H   0  0  0  0  0  0  0  0  0  0  0  0  # atno 4818 bound_to 65  
  -49.4909  -10.8383  -13.9463 H   0  0  0  0  0  0  0  0  0  0  0  0  # atno 4839 bound_to 441 
  -47.9675  -11.3944  -14.2888 H   0  0  0  0  0  0  0  0  0  0  0  0  # atno 4840 bound_to 441 
  -48.5176  -11.3941  -12.7252 H   0  0  0  0  0  0  0  0  0  0  0  0  # atno 4841 bound_to 441 
  -37.4866  -18.0986  -15.7782 H   0  0  0  0  0  0  0  0  0  0  0  0  # atno 4985 bound_to 758 
  -54.5295  -17.4361  -15.1937 H   0  0  0  0  0  0  0  0  0  0  0  0  # atno 5271 bound_to 1023
  -54.3453  -15.4892   -6.7469 H   0  0  0  0  0  0  0  0  0  0  0  0  # atno 5330 bound_to 1065
  -55.1850  -16.8592  -18.0462 H   0  0  0  0  0  0  0  0  0  0  0  0  # atno 6036 bound_to 1776
  -46.5040  -17.8587  -19.1595 H   0  0  0  0  0  0  0  0  0  0  0  0  # atno 6078 bound_to 1819
  -49.3510  -15.5233  -10.6386 H   0  0  0  0  0  0  0  0  0  0  0  0  # atno 6166 bound_to 1916
  -34.4973  -14.9527   -5.3280 H   0  0  0  0  0  0  0  0  0  0  0  0  # atno 6268 bound_to 1997
  -49.0198  -20.4548   -1.0737 H   0  0  0  0  0  0  0  0  0  0  0  0  # atno 6640 bound_to 2347
  -34.9395   -6.2220   -1.3402 H   0  0  0  0  0  0  0  0  0  0  0  0  # atno 8510 bound_to 202 
  -31.8446   -8.4695   -4.9288 H   0  0  0  0  0  0  0  0  0  0  0  0  # atno 8592 bound_to 72  
  -44.8192  -10.9422  -16.7316 LP  0  0  0  0  0  0  0  0  0  0  0  0  # atno 8618 bound_to 112 
  -46.1270  -10.4376  -15.8939 LP  0  0  0  0  0  0  0  0  0  0  0  0  # atno 8619 bound_to 112 
  -37.6002  -17.8316  -17.3794 LP  0  0  0  0  0  0  0  0  0  0  0  0  # atno 8637 bound_to 758 
  -38.7388  -17.2427  -16.3677 LP  0  0  0  0  0  0  0  0  0  0  0  0  # atno 8638 bound_to 758 
  -54.2347  -17.4681  -13.5937 LP  0  0  0  0  0  0  0  0  0  0  0  0  # atno 8642 bound_to 1023
  -54.7050  -16.0793  -14.3125 LP  0  0  0  0  0  0  0  0  0  0  0  0  # atno 8643 bound_to 1023
  -53.7560  -16.1813  -18.4292 LP  0  0  0  0  0  0  0  0  0  0  0  0  # atno 8662 bound_to 1776
  -53.8093  -17.4698  -17.4274 LP  0  0  0  0  0  0  0  0  0  0  0  0  # atno 8663 bound_to 1776
  -45.2209  -16.9822  -19.6428 LP  0  0  0  0  0  0  0  0  0  0  0  0  # atno 8672 bound_to 1819
  -45.1598  -17.8210  -18.2431 LP  0  0  0  0  0  0  0  0  0  0  0  0  # atno 8673 bound_to 1819
  -50.6407  -15.6999  -11.6150 LP  0  0  0  0  0  0  0  0  0  0  0  0  # atno 8684 bound_to 1916
  -49.2674  -15.0254  -12.1856 LP  0  0  0  0  0  0  0  0  0  0  0  0  # atno 8685 bound_to 1916
  -30.4464  -15.8392   -2.5745 LP  0  0  0  0  0  0  0  0  0  0  0  0  # atno 8712 bound_to 65  
  -31.1923  -16.8191   -3.6469 LP  0  0  0  0  0  0  0  0  0  0  0  0  # atno 8713 bound_to 65  
  -34.8759  -15.6754   -3.9200 LP  0  0  0  0  0  0  0  0  0  0  0  0  # atno 8724 bound_to 1997
  -35.8469  -15.8556   -5.2206 LP  0  0  0  0  0  0  0  0  0  0  0  0  # atno 8725 bound_to 1997
  -31.7474   -9.1511   -3.4544 LP  0  0  0  0  0  0  0  0  0  0  0  0  # atno 8747 bound_to 72  
  -32.9306   -9.5981   -4.4873 LP  0  0  0  0  0  0  0  0  0  0  0  0  # atno 8748 bound_to 72  
  -32.3639   -8.4004   -6.1319 LP  0  0  0  0  0  0  0  0  0  0  0  0  # atno 8749 bound_to 100 
  -33.3264   -7.4300   -5.2382 LP  0  0  0  0  0  0  0  0  0  0  0  0  # atno 8750 bound_to 100 
  -35.3643   -7.7207   -1.8107 LP  0  0  0  0  0  0  0  0  0  0  0  0  # atno 8754 bound_to 202 
  -35.5754   -6.4544   -2.8200 LP  0  0  0  0  0  0  0  0  0  0  0  0  # atno 8755 bound_to 202 
  -54.5967  -14.4613   -7.9831 LP  0  0  0  0  0  0  0  0  0  0  0  0  # atno 8775 bound_to 1065
  -53.8134  -15.8716   -8.2365 LP  0  0  0  0  0  0  0  0  0  0  0  0  # atno 8776 bound_to 1065
  -49.5764  -21.4111   -2.2669 LP  0  0  0  0  0  0  0  0  0  0  0  0  # atno 8779 bound_to 2347
  -49.0987  -19.8845   -2.5958 LP  0  0  0  0  0  0  0  0  0  0  0  0  # atno 8780 bound_to 2347
  -31.2561   -9.8137   -8.7347 LP  0  0  0  0  0  0  0  0  0  0  0  0  # atno 8787 bound_to 380 
  -30.5927   -8.6632   -9.6849 LP  0  0  0  0  0  0  0  0  0  0  0  0  # atno 8788 bound_to 380 

$$$$
