unknown|11k_best|sdf|8305|dock8
  -GOLD-   3 721 1173D 1   1.00000     0.00000

 30 33  0  0  0  0  0  0  0  0  1 V2000
  -52.8633  -15.8769  -15.9632 C   0  0  0  0  0  0  0  0  0  0  0  0
  -51.5475  -15.3494  -16.0475 O   0  0  0  0  0  0  0  0  0  0  0  0
  -50.5397  -16.1842  -16.5365 C   0  0  0  0  0  0  0  0  0  0  0  0
  -50.9008  -17.4109  -17.0633 C   0  0  0  0  0  0  0  0  0  0  0  0
  -49.8953  -18.2426  -17.5361 C   0  0  0  0  0  0  0  0  0  0  0  0
  -48.5752  -17.9507  -17.2167 C   0  0  0  0  0  0  0  0  0  0  0  0
  -47.6453  -18.9943  -17.2182 O   0  0  0  0  0  0  0  0  0  0  0  0
  -48.0266  -20.3381  -17.4854 C   0  0  0  0  0  0  0  0  0  0  0  0
  -48.2183  -16.7528  -16.6218 C   0  0  0  0  0  0  0  0  0  0  0  0
  -47.0510  -16.6503  -15.8735 C   0  0  0  0  0  0  0  0  0  0  0  0
  -46.2285  -17.5909  -15.8052 O   0  0  0  0  0  0  0  0  0  0  0  0
  -46.8373  -15.5371  -15.0713 C   0  0  0  0  0  0  0  0  0  0  0  0
  -46.2316  -15.6900  -13.7205 C   0  0  0  0  0  0  0  0  0  0  0  0
  -46.4359  -14.5507  -12.8745 N   0  0  0  0  0  0  0  0  0  0  0  0
  -45.1936  -13.9627  -12.4119 C   0  0  0  0  0  0  0  0  0  0  0  0
  -45.4774  -12.4924  -12.1654 C   0  0  0  0  0  0  0  0  0  0  0  0
  -46.8532  -12.4038  -11.6862 N   0  0  0  0  0  0  0  0  0  0  0  0
  -46.8863  -11.2228  -10.8307 C   0  0  0  0  0  0  0  0  0  0  0  0
  -48.2774  -10.9242  -10.3952 C   0  0  0  0  0  0  0  0  0  0  0  0
  -48.5882   -9.8768   -9.5430 C   0  0  0  0  0  0  0  0  0  0  0  0
  -49.8964   -9.4140   -9.4812 C   0  0  0  0  0  0  0  0  0  0  0  0
  -50.8649   -9.8532  -10.3758 C   0  0  0  0  0  0  0  0  0  0  0  0
  -50.6304  -11.0698  -10.9810 C   0  0  0  0  0  0  0  0  0  0  0  0
  -49.3519  -11.6103  -10.9456 C   0  0  0  0  0  0  0  0  0  0  0  0
  -47.2296  -13.5363  -10.8776 C   0  0  0  0  0  0  0  0  0  0  0  0
  -47.2309  -14.8168  -11.7045 C   0  0  0  0  0  0  0  0  0  0  0  0
  -47.7203  -14.4830  -15.2607 C   0  0  0  0  0  0  0  0  0  0  0  0
  -47.4518  -13.1892  -14.5732 C   0  0  0  0  0  0  0  0  0  0  0  0
  -48.8411  -14.6058  -16.0132 N   0  0  0  0  0  0  0  0  0  0  0  0
  -49.2111  -15.7819  -16.5644 C   0  0  0  0  0  0  0  0  0  0  0  0
  1  2  1  0  0  0  0
  2  3  1  0  0  0  0
  3  4  2  0  0  0  0
  4  5  1  0  0  0  0
  5  6  2  0  0  0  0
  6  7  1  0  0  0  0
  7  8  1  0  0  0  0
  6  9  1  0  0  0  0
  9 10  1  0  0  0  0
 10 11  2  0  0  0  0
 10 12  1  0  0  0  0
 12 13  1  0  0  0  0
 13 14  1  0  0  0  0
 14 15  1  0  0  0  0
 15 16  1  0  0  0  0
 16 17  1  0  0  0  0
 17 18  1  0  0  0  0
 18 19  1  0  0  0  0
 19 20  2  0  0  0  0
 20 21  1  0  0  0  0
 21 22  2  0  0  0  0
 22 23  1  0  0  0  0
 23 24  2  0  0  0  0
 17 25  1  0  0  0  0
 25 26  1  0  0  0  0
 12 27  2  0  0  0  0
 27 28  1  0  0  0  0
 27 29  1  0  0  0  0
 29 30  1  0  0  0  0
 30  3  1  0  0  0  0
 30  9  2  0  0  0  0
 26 14  1  0  0  0  0
 24 19  1  0  0  0  0
M  END
>  <zinc_id>  (305) 
ZINC000019793607

>  <smiles>  (305) 
COc1ccc(OC)c2c(=O)c(CN3CCN(Cc4ccccc4)CC3)c(C)[nH]c12

>  <source_line>  (305) 
305

>  <source_data>  (305) 
ZINC000019793607

>  <source_name>  (305) 


>  <source_label>  (305) 
ZINC000019793607

>  <found_by>  (305) 
ZINC

> <Gold.Version>
5.8.1

> <Gold.Id.Protein>
ID|ID_protein|mol2

> <Gold.Goldscore.Fitness>
71.8977

> <Gold.Goldscore.Internal.Vdw>
-2.0983

> <Gold.Goldscore.Internal.Torsion>
-1.2647

> <Gold.Goldscore.External.Vdw>
49.9026

> <Gold.Goldscore.Internal.HBond>
0.0000

> <Gold.Goldscore.External.HBond>
7.8292

> <Gold.Goldscore.Internal.Correction>
1.1845

> <Gold.Goldscore.Hbonds>
donor molecule, donor type, donor heavy atom, donor atom, acceptor molecule, acceptor atom, score
      P1  H   426  4822       L1    29  0.30
      P1  H   441  4840       L1    17  0.68
      P1  H  1819  6078       L1     7  1.00

> <Gold.Goldscore.Internal.Vdw.Weighted>
-2.0983

> <Gold.Goldscore.Internal.Torsion.Weighted>
-1.2647

> <Gold.Goldscore.External.Vdw.Weighted>
68.6160

> <Gold.Goldscore.Internal.HBond.Weighted>
0.0000

> <Gold.Goldscore.External.HBond.Weighted>
7.8292

> <Gold.Goldscore.Internal.Correction.Weighted>
1.1845

> <Gold.Protein.RotatedTorsions>
[ 4464  112  111  109 ] final   80.37 input   60.00 | X-H torsion
[ 4839  441  440  439 ] final   81.11 input   60.00 | X-H torsion
[ 4985  758  757  756 ] final  -91.09 input   60.00 | X-H torsion
[ 5271 1023 1022 1020 ] final  -78.72 input   60.00 | X-H torsion
[ 6036 1776 1775 1774 ] final   36.96 input   60.00 | X-H torsion
[ 6078 1819 1818 1817 ] final -169.56 input   60.00 | X-H torsion
[ 6166 1916 1915 1913 ] final   -8.25 input   60.00 | X-H torsion
[ 4818   65   64   63 ] final -149.28 input   60.00 | X-H torsion
[ 6268 1997 1996 1994 ] final -160.69 input   60.00 | X-H torsion
[ 8592   72   71   70 ] final   66.28 input   60.00 | X-H torsion
[ 4356  100   99   97 ] final  -81.36 input   60.00 | X-H torsion
[ 8510  202  201  200 ] final  -14.48 input   60.00 | X-H torsion
[ 5330 1065 1064 1063 ] final    1.78 input   60.00 | X-H torsion
[ 6640 2347 2346 2344 ] final   46.47 input   60.00 | X-H torsion
[ 4452  380  379  378 ] final   40.88 input   60.00 | X-H torsion
[ 4500  391  390  389 ] final  140.89 input   60.00 | X-H torsion

> <Gold.Protein.ActiveResidues>
 THR8    THR9    PRO10   ILE11   TYR12   TYR13   VAL14   ASN15   ALA16   HIS19  
 HIS22   SER25   VAL29   MET46   THR47   GLY48   THR49   ASP50   GLU51   HIS52  
 GLY53   GLN54   LYS55   VAL56   ALA57   GLU58   THR71   PHE78   ILE93   THR95  
 THR96   HIS100  GLU101  VAL104  TRP108  TYR126  VAL128  SER129  ASP130  GLU131 
 SER132  LEU210  SER211  ILE212  SER213  ARG214  LYS215  ARG216  SER218  VAL219 
 MET220  ASN221  TRP222  SER223  ILE224  PRO225  VAL226  HIS232  CYS233  ILE234 
 TYR235  VAL236  TRP237  LEU238  ASP239  ALA240  LEU241  PHE242  ASN243  TYR244 
 TYR245  THR246  HIS275  VAL276  VAL277  GLY278  LYS279  ASP280  ILE281  LEU282 
 LYS283  PHE284  HIS285  ALA286  ILE287  TYR288  TRP289  PRO290  PHE292  LEU304 
 TRP309 

> <Gold.Protein.RotatedAtoms>
  -32.7419   -6.6139   -5.7491 H   0  0  0  0  0  0  0  0  0  0  0  0  # atno 4356 bound_to 100 
  -31.1482   -9.6764   -8.2874 H   0  0  0  0  0  0  0  0  0  0  0  0  # atno 4452 bound_to 380 
  -45.9097  -11.5577  -15.3835 H   0  0  0  0  0  0  0  0  0  0  0  0  # atno 4464 bound_to 112 
  -35.1510  -10.1308  -16.9250 H   0  0  0  0  0  0  0  0  0  0  0  0  # atno 4500 bound_to 391 
  -31.1033  -16.8481   -3.5743 H   0  0  0  0  0  0  0  0  0  0  0  0  # atno 4818 bound_to 65  
  -48.4241  -11.1728  -14.5805 H   0  0  0  0  0  0  0  0  0  0  0  0  # atno 4839 bound_to 441 
  -48.0316  -11.5464  -13.0141 H   0  0  0  0  0  0  0  0  0  0  0  0  # atno 4840 bound_to 441 
  -49.5201  -10.9076  -13.3657 H   0  0  0  0  0  0  0  0  0  0  0  0  # atno 4841 bound_to 441 
  -38.3462  -17.3739  -17.2740 H   0  0  0  0  0  0  0  0  0  0  0  0  # atno 4985 bound_to 758 
  -54.5035  -16.4164  -13.6330 H   0  0  0  0  0  0  0  0  0  0  0  0  # atno 5271 bound_to 1023
  -53.9288  -15.5432   -8.4899 H   0  0  0  0  0  0  0  0  0  0  0  0  # atno 5330 bound_to 1065
  -54.7435  -16.2346  -18.4900 H   0  0  0  0  0  0  0  0  0  0  0  0  # atno 6036 bound_to 1776
  -46.1267  -18.1223  -18.4605 H   0  0  0  0  0  0  0  0  0  0  0  0  # atno 6078 bound_to 1819
  -49.7740  -15.1562  -12.3767 H   0  0  0  0  0  0  0  0  0  0  0  0  # atno 6166 bound_to 1916
  -35.7370  -16.0461   -4.4654 H   0  0  0  0  0  0  0  0  0  0  0  0  # atno 6268 bound_to 1997
  -49.2805  -21.1230   -1.2134 H   0  0  0  0  0  0  0  0  0  0  0  0  # atno 6640 bound_to 2347
  -34.9217   -6.3902   -1.2317 H   0  0  0  0  0  0  0  0  0  0  0  0  # atno 8510 bound_to 202 
  -31.7956   -9.1994   -3.4447 H   0  0  0  0  0  0  0  0  0  0  0  0  # atno 8592 bound_to 72  
  -44.7188  -11.4730  -16.4891 LP  0  0  0  0  0  0  0  0  0  0  0  0  # atno 8618 bound_to 112 
  -45.7758  -10.2388  -16.3273 LP  0  0  0  0  0  0  0  0  0  0  0  0  # atno 8619 bound_to 112 
  -38.3324  -17.5853  -15.6606 LP  0  0  0  0  0  0  0  0  0  0  0  0  # atno 8637 bound_to 758 
  -37.1408  -18.2188  -16.5801 LP  0  0  0  0  0  0  0  0  0  0  0  0  # atno 8638 bound_to 758 
  -54.7202  -16.6754  -15.2249 LP  0  0  0  0  0  0  0  0  0  0  0  0  # atno 8642 bound_to 1023
  -54.2456  -17.8988  -14.2529 LP  0  0  0  0  0  0  0  0  0  0  0  0  # atno 8643 bound_to 1023
  -53.3129  -16.7676  -17.9264 LP  0  0  0  0  0  0  0  0  0  0  0  0  # atno 8662 bound_to 1776
  -54.6969  -17.5125  -17.4834 LP  0  0  0  0  0  0  0  0  0  0  0  0  # atno 8663 bound_to 1776
  -46.0084  -17.2282  -19.8150 LP  0  0  0  0  0  0  0  0  0  0  0  0  # atno 8672 bound_to 1819
  -44.7523  -17.3096  -18.7747 LP  0  0  0  0  0  0  0  0  0  0  0  0  # atno 8673 bound_to 1819
  -48.9708  -15.2828  -10.9672 LP  0  0  0  0  0  0  0  0  0  0  0  0  # atno 8684 bound_to 1916
  -50.5112  -15.8123  -11.0829 LP  0  0  0  0  0  0  0  0  0  0  0  0  # atno 8685 bound_to 1916
  -31.6895  -15.3302   -3.5986 LP  0  0  0  0  0  0  0  0  0  0  0  0  # atno 8712 bound_to 65  
  -30.4840  -15.7267   -2.5709 LP  0  0  0  0  0  0  0  0  0  0  0  0  # atno 8713 bound_to 65  
  -35.1232  -15.2174   -5.7241 LP  0  0  0  0  0  0  0  0  0  0  0  0  # atno 8724 bound_to 1997
  -34.3511  -15.2125   -4.2852 LP  0  0  0  0  0  0  0  0  0  0  0  0  # atno 8725 bound_to 1997
  -32.9326   -9.5678   -4.5490 LP  0  0  0  0  0  0  0  0  0  0  0  0  # atno 8747 bound_to 72  
  -31.7947   -8.4464   -4.8873 LP  0  0  0  0  0  0  0  0  0  0  0  0  # atno 8748 bound_to 72  
  -31.9797   -7.8605   -6.4655 LP  0  0  0  0  0  0  0  0  0  0  0  0  # atno 8749 bound_to 100 
  -33.1770   -8.1405   -5.3910 LP  0  0  0  0  0  0  0  0  0  0  0  0  # atno 8750 bound_to 100 
  -35.4411   -7.7286   -1.9978 LP  0  0  0  0  0  0  0  0  0  0  0  0  # atno 8754 bound_to 202 
  -35.5165   -6.2771   -2.7421 LP  0  0  0  0  0  0  0  0  0  0  0  0  # atno 8755 bound_to 202 
  -54.1325  -15.8302   -6.9011 LP  0  0  0  0  0  0  0  0  0  0  0  0  # atno 8775 bound_to 1065
  -54.6971  -14.4483   -7.5631 LP  0  0  0  0  0  0  0  0  0  0  0  0  # atno 8776 bound_to 1065
  -49.5039  -20.9228   -2.8128 LP  0  0  0  0  0  0  0  0  0  0  0  0  # atno 8779 bound_to 2347
  -48.9086  -19.6998   -1.9093 LP  0  0  0  0  0  0  0  0  0  0  0  0  # atno 8780 bound_to 2347
  -30.8442   -9.0663   -9.7650 LP  0  0  0  0  0  0  0  0  0  0  0  0  # atno 8787 bound_to 380 
  -30.3061   -8.2915   -8.4321 LP  0  0  0  0  0  0  0  0  0  0  0  0  # atno 8788 bound_to 380 

$$$$
