unknown|11k_best|sdf|963|dock6
  -GOLD-   2312114393D 1   1.00000     0.00000

 30 33  0  0  0  0  0  0  0  0  1 V2000
  -40.0194  -13.4316   -7.8954 C   0  0  0  0  0  0  0  0  0  0  0  0
  -40.8376  -12.3911   -8.5723 C   0  0  0  0  0  0  0  0  0  0  0  0
  -40.8456  -12.2888   -9.9522 C   0  0  0  0  0  0  0  0  0  0  0  0
  -41.8486  -11.6047  -10.6191 C   0  0  0  0  0  0  0  0  0  0  0  0
  -42.9267  -11.1306   -9.9095 C   0  0  0  0  0  0  0  0  0  0  0  0
  -44.2785  -11.0852  -10.5388 C   0  0  0  0  0  0  0  0  0  0  0  0
  -44.5639  -12.5613  -11.5399 S   0  0  0  0  0  0  0  0  0  0  0  0
  -46.0278  -13.4675  -10.9720 C   0  0  0  0  0  0  0  0  0  0  0  0
  -47.2417  -13.1610  -11.8377 C   0  0  0  0  0  0  0  0  0  0  0  0
  -47.3612  -14.1996  -12.8567 N   0  0  0  0  0  0  0  0  0  0  0  0
  -46.7214  -14.0193  -14.1258 C   0  0  0  0  0  0  0  0  0  0  0  0
  -46.4366  -12.8158  -14.4098 O   0  0  0  0  0  0  0  0  0  0  0  0
  -47.1882  -14.8255  -15.2633 C   0  0  0  0  0  0  0  0  0  0  0  0
  -48.4296  -14.9321  -15.7023 O   0  0  0  0  0  0  0  0  0  0  0  0
  -48.5617  -15.9985  -16.4627 C   0  0  0  0  0  0  0  0  0  0  0  0
  -49.6592  -16.6694  -16.9897 C   0  0  0  0  0  0  0  0  0  0  0  0
  -49.5733  -17.9948  -17.3978 C   0  0  0  0  0  0  0  0  0  0  0  0
  -48.5522  -18.7867  -16.8879 C   0  0  0  0  0  0  0  0  0  0  0  0
  -47.3770  -18.1145  -16.5869 C   0  0  0  0  0  0  0  0  0  0  0  0
  -47.3808  -16.7313  -16.4519 C   0  0  0  0  0  0  0  0  0  0  0  0
  -46.4845  -15.8983  -15.7944 C   0  0  0  0  0  0  0  0  0  0  0  0
  -45.0089  -16.0007  -15.9165 C   0  0  0  0  0  0  0  0  0  0  0  0
  -44.2935  -17.0508  -14.6156 S   0  0  0  0  0  0  0  0  0  0  0  0
  -42.5245  -16.8411  -14.5031 C   0  0  0  0  0  0  0  0  0  0  0  0
  -41.6375  -16.5537  -15.4821 N   0  0  0  0  0  0  0  0  0  0  0  0
  -40.4702  -16.2429  -14.8672 C   0  0  0  0  0  0  0  0  0  0  0  0
  -40.5830  -16.8376  -13.6542 N   0  0  0  0  0  0  0  0  0  0  0  0
  -41.8644  -16.6585  -13.3334 N   0  0  0  0  0  0  0  0  0  0  0  0
  -42.7726  -10.9752   -8.5382 C   0  0  0  0  0  0  0  0  0  0  0  0
  -41.7031  -11.5661   -7.8855 C   0  0  0  0  0  0  0  0  0  0  0  0
  1  2  1  0  0  0  0
  2  3  2  0  0  0  0
  3  4  1  0  0  0  0
  4  5  2  0  0  0  0
  5  6  1  0  0  0  0
  6  7  1  0  0  0  0
  7  8  1  0  0  0  0
  8  9  1  0  0  0  0
  9 10  1  0  0  0  0
 10 11  1  0  0  0  0
 11 12  2  0  0  0  0
 11 13  1  0  0  0  0
 13 14  1  0  0  0  0
 14 15  1  0  0  0  0
 15 16  2  0  0  0  0
 16 17  1  0  0  0  0
 17 18  2  0  0  0  0
 18 19  1  0  0  0  0
 19 20  2  0  0  0  0
 20 21  1  0  0  0  0
 21 22  1  0  0  0  0
 22 23  1  0  0  0  0
 23 24  1  0  0  0  0
 24 25  2  0  0  0  0
 25 26  1  0  0  0  0
 26 27  2  0  0  0  0
 27 28  1  0  0  0  0
  5 29  1  0  0  0  0
 29 30  2  0  0  0  0
 30  2  1  0  0  0  0
 21 13  2  0  0  0  0
 28 24  1  0  0  0  0
 20 15  1  0  0  0  0
M  END
>  <zinc_id>  (963) 
ZINC000012764857

>  <smiles>  (963) 
Cc1ccc(CSCCNC(=O)c2oc3ccccc3c2CSc2ncn[nH]2)cc1

>  <source_line>  (963) 
963

>  <source_data>  (963) 
ZINC000012764857

>  <source_name>  (963) 


>  <source_label>  (963) 
ZINC000012764857

>  <found_by>  (963) 
ZINC

> <Gold.Version>
5.8.1

> <Gold.Id.Protein>
ID|ID_protein|mol2

> <Gold.Goldscore.Fitness>
82.3856

> <Gold.Goldscore.Internal.Vdw>
2.8239

> <Gold.Goldscore.Internal.Torsion>
-9.7188

> <Gold.Goldscore.External.Vdw>
56.9734

> <Gold.Goldscore.Internal.HBond>
0.0000

> <Gold.Goldscore.External.HBond>
11.2790

> <Gold.Goldscore.Internal.Correction>
0.3369

> <Gold.Goldscore.Hbonds>
donor molecule, donor type, donor heavy atom, donor atom, acceptor molecule, acceptor atom, score
      P1  H   112  4464       L1    12  1.00
      P1  H   414  4516       L1    25  0.02
      P1  H   426  4822       L1    14  0.37
      P1  H   441  4840       L1    12  0.73
      P1  H  1916  6166       L1    10  0.69

> <Gold.Goldscore.Internal.Vdw.Weighted>
2.8239

> <Gold.Goldscore.Internal.Torsion.Weighted>
-9.7188

> <Gold.Goldscore.External.Vdw.Weighted>
78.3385

> <Gold.Goldscore.Internal.HBond.Weighted>
0.0000

> <Gold.Goldscore.External.HBond.Weighted>
11.2790

> <Gold.Goldscore.Internal.Correction.Weighted>
0.3369

> <Gold.Protein.RotatedTorsions>
[ 4464  112  111  109 ] final   71.09 input   60.00 | X-H torsion
[ 4839  441  440  439 ] final   14.92 input   60.00 | X-H torsion
[ 4985  758  757  756 ] final  134.18 input   60.00 | X-H torsion
[ 5271 1023 1022 1020 ] final   99.04 input   60.00 | X-H torsion
[ 6036 1776 1775 1774 ] final -125.47 input   60.00 | X-H torsion
[ 6078 1819 1818 1817 ] final  -95.43 input   60.00 | X-H torsion
[ 6166 1916 1915 1913 ] final  -66.86 input   60.00 | X-H torsion
[ 4818   65   64   63 ] final   50.32 input   60.00 | X-H torsion
[ 6268 1997 1996 1994 ] final  -56.32 input   60.00 | X-H torsion
[ 8592   72   71   70 ] final -152.45 input   60.00 | X-H torsion
[ 4356  100   99   97 ] final  -32.32 input   60.00 | X-H torsion
[ 8510  202  201  200 ] final   23.56 input   60.00 | X-H torsion
[ 5330 1065 1064 1063 ] final -162.56 input   60.00 | X-H torsion
[ 6640 2347 2346 2344 ] final -143.31 input   60.00 | X-H torsion
[ 4452  380  379  378 ] final   14.80 input   60.00 | X-H torsion
[ 4500  391  390  389 ] final   33.71 input   60.00 | X-H torsion

> <Gold.Protein.ActiveResidues>
 THR8    THR9    PRO10   ILE11   TYR12   TYR13   VAL14   ASN15   ALA16   HIS19  
 HIS22   SER25   VAL29   MET46   THR47   GLY48   THR49   ASP50   GLU51   HIS52  
 GLY53   GLN54   LYS55   VAL56   ALA57   GLU58   THR71   PHE78   ILE93   THR95  
 THR96   HIS100  GLU101  VAL104  TRP108  TYR126  VAL128  SER129  ASP130  GLU131 
 SER132  LEU210  SER211  ILE212  SER213  ARG214  LYS215  ARG216  SER218  VAL219 
 MET220  ASN221  TRP222  SER223  ILE224  PRO225  VAL226  HIS232  CYS233  ILE234 
 TYR235  VAL236  TRP237  LEU238  ASP239  ALA240  LEU241  PHE242  ASN243  TYR244 
 TYR245  THR246  HIS275  VAL276  VAL277  GLY278  LYS279  ASP280  ILE281  LEU282 
 LYS283  PHE284  HIS285  ALA286  ILE287  TYR288  TRP289  PRO290  PHE292  LEU304 
 TRP309 

> <Gold.Protein.RotatedAtoms>
  -33.2232   -7.0529   -5.3253 H   0  0  0  0  0  0  0  0  0  0  0  0  # atno 4356 bound_to 100 
  -31.2449   -9.8042   -8.6783 H   0  0  0  0  0  0  0  0  0  0  0  0  # atno 4452 bound_to 380 
  -45.8062  -11.6657  -15.4073 H   0  0  0  0  0  0  0  0  0  0  0  0  # atno 4464 bound_to 112 
  -34.8407  -11.3587  -16.1084 H   0  0  0  0  0  0  0  0  0  0  0  0  # atno 4500 bound_to 391 
  -31.3117  -15.0666   -3.1417 H   0  0  0  0  0  0  0  0  0  0  0  0  # atno 4818 bound_to 65  
  -49.3502  -10.8569  -14.2134 H   0  0  0  0  0  0  0  0  0  0  0  0  # atno 4839 bound_to 441 
  -47.8266  -11.4853  -14.0370 H   0  0  0  0  0  0  0  0  0  0  0  0  # atno 4840 bound_to 441 
  -48.7992  -11.2846  -12.7099 H   0  0  0  0  0  0  0  0  0  0  0  0  # atno 4841 bound_to 441 
  -38.1394  -17.7121  -15.5919 H   0  0  0  0  0  0  0  0  0  0  0  0  # atno 4985 bound_to 758 
  -54.4684  -17.6024  -15.0812 H   0  0  0  0  0  0  0  0  0  0  0  0  # atno 5271 bound_to 1023
  -54.4785  -15.2311   -6.7460 H   0  0  0  0  0  0  0  0  0  0  0  0  # atno 5330 bound_to 1065
  -53.5442  -17.2839  -17.5491 H   0  0  0  0  0  0  0  0  0  0  0  0  # atno 6036 bound_to 1776
  -45.0729  -17.7556  -18.2906 H   0  0  0  0  0  0  0  0  0  0  0  0  # atno 6078 bound_to 1819
  -49.0094  -15.0225  -11.8895 H   0  0  0  0  0  0  0  0  0  0  0  0  # atno 6166 bound_to 1916
  -34.4772  -15.3550   -4.1144 H   0  0  0  0  0  0  0  0  0  0  0  0  # atno 6268 bound_to 1997
  -49.1217  -19.9331   -2.6415 H   0  0  0  0  0  0  0  0  0  0  0  0  # atno 6640 bound_to 2347
  -35.0268   -5.9640   -1.6557 H   0  0  0  0  0  0  0  0  0  0  0  0  # atno 8510 bound_to 202 
  -32.0584   -8.5715   -5.0748 H   0  0  0  0  0  0  0  0  0  0  0  0  # atno 8592 bound_to 72  
  -44.7157  -11.3447  -16.5718 LP  0  0  0  0  0  0  0  0  0  0  0  0  # atno 8618 bound_to 112 
  -45.8832  -10.2583  -16.2206 LP  0  0  0  0  0  0  0  0  0  0  0  0  # atno 8619 bound_to 112 
  -37.1698  -18.1715  -16.8154 LP  0  0  0  0  0  0  0  0  0  0  0  0  # atno 8637 bound_to 758 
  -38.5117  -17.2920  -17.1194 LP  0  0  0  0  0  0  0  0  0  0  0  0  # atno 8638 bound_to 758 
  -54.2639  -17.2814  -13.4990 LP  0  0  0  0  0  0  0  0  0  0  0  0  # atno 8642 bound_to 1023
  -54.7373  -16.0985  -14.5205 LP  0  0  0  0  0  0  0  0  0  0  0  0  # atno 8643 bound_to 1023
  -55.1392  -17.1256  -17.8304 LP  0  0  0  0  0  0  0  0  0  0  0  0  # atno 8662 bound_to 1776
  -54.0784  -16.0979  -18.5269 LP  0  0  0  0  0  0  0  0  0  0  0  0  # atno 8663 bound_to 1776
  -46.4996  -17.9175  -19.0564 LP  0  0  0  0  0  0  0  0  0  0  0  0  # atno 8672 bound_to 1819
  -45.3225  -16.9896  -19.7045 LP  0  0  0  0  0  0  0  0  0  0  0  0  # atno 8673 bound_to 1819
  -49.7082  -15.6718  -10.5712 LP  0  0  0  0  0  0  0  0  0  0  0  0  # atno 8684 bound_to 1916
  -50.5439  -15.5579  -11.9695 LP  0  0  0  0  0  0  0  0  0  0  0  0  # atno 8685 bound_to 1916
  -30.4104  -16.3554   -2.7236 LP  0  0  0  0  0  0  0  0  0  0  0  0  # atno 8712 bound_to 65  
  -31.5532  -16.4957   -3.8816 LP  0  0  0  0  0  0  0  0  0  0  0  0  # atno 8713 bound_to 65  
  -35.8383  -16.0283   -4.6995 LP  0  0  0  0  0  0  0  0  0  0  0  0  # atno 8724 bound_to 1997
  -34.9048  -15.0975   -5.6633 LP  0  0  0  0  0  0  0  0  0  0  0  0  # atno 8725 bound_to 1997
  -31.5819   -8.9551   -3.5668 LP  0  0  0  0  0  0  0  0  0  0  0  0  # atno 8747 bound_to 72  
  -32.8808   -9.6915   -4.2279 LP  0  0  0  0  0  0  0  0  0  0  0  0  # atno 8748 bound_to 72  
  -32.0146   -7.0803   -6.4146 LP  0  0  0  0  0  0  0  0  0  0  0  0  # atno 8749 bound_to 100 
  -32.6574   -8.4786   -5.8687 LP  0  0  0  0  0  0  0  0  0  0  0  0  # atno 8750 bound_to 100 
  -35.1978   -7.5699   -1.4562 LP  0  0  0  0  0  0  0  0  0  0  0  0  # atno 8754 bound_to 202 
  -35.6540   -6.8650   -2.8568 LP  0  0  0  0  0  0  0  0  0  0  0  0  # atno 8755 bound_to 202 
  -54.4862  -14.5681   -8.2321 LP  0  0  0  0  0  0  0  0  0  0  0  0  # atno 8775 bound_to 1065
  -53.7898  -16.0249   -7.9884 LP  0  0  0  0  0  0  0  0  0  0  0  0  # atno 8776 bound_to 1065
  -49.0005  -20.3877   -1.0837 LP  0  0  0  0  0  0  0  0  0  0  0  0  # atno 8779 bound_to 2347
  -49.5721  -21.4333   -2.2002 LP  0  0  0  0  0  0  0  0  0  0  0  0  # atno 8780 bound_to 2347
  -30.6215   -8.7084   -9.7072 LP  0  0  0  0  0  0  0  0  0  0  0  0  # atno 8787 bound_to 380 
  -30.4315   -8.5206   -8.0962 LP  0  0  0  0  0  0  0  0  0  0  0  0  # atno 8788 bound_to 380 

$$$$
