unknown|11k_best|sdf|8302|dock7
  -GOLD-   3 721 1133D 1   1.00000     0.00000

 29 31  0  0  0  0  0  0  0  0  1 V2000
  -42.7993  -18.9877  -17.3282 C   0  0  0  0  0  0  0  0  0  0  0  0
  -44.0308  -18.9348  -16.6553 O   0  0  0  0  0  0  0  0  0  0  0  0
  -44.2673  -17.9926  -15.6611 C   0  0  0  0  0  0  0  0  0  0  0  0
  -45.5628  -17.7068  -15.2725 C   0  0  0  0  0  0  0  0  0  0  0  0
  -45.9642  -16.4334  -14.8952 C   0  0  0  0  0  0  0  0  0  0  0  0
  -44.9609  -15.5205  -14.6225 C   0  0  0  0  0  0  0  0  0  0  0  0
  -45.3283  -14.1311  -14.3198 C   0  0  0  0  0  0  0  0  0  0  0  0
  -44.9477  -13.4733  -13.1658 C   0  0  0  0  0  0  0  0  0  0  0  0
  -45.8232  -12.4034  -13.0239 C   0  0  0  0  0  0  0  0  0  0  0  0
  -45.9157  -11.4887  -11.8697 C   0  0  0  0  0  0  0  0  0  0  0  0
  -46.2334  -12.3116  -10.6337 C   0  0  0  0  0  0  0  0  0  0  0  0
  -47.5356  -12.9859  -10.9113 C   0  0  0  0  0  0  0  0  0  0  0  0
  -47.5728  -14.2343  -10.9764 O   0  0  0  0  0  0  0  0  0  0  0  0
  -48.5909  -12.1608  -11.3025 O   0  0  0  0  0  0  0  0  0  0  0  0
  -46.3841  -11.4372   -9.4155 C   0  0  0  0  0  0  0  0  0  0  0  0
  -45.1204  -11.3755   -8.5866 C   0  0  0  0  0  0  0  0  0  0  0  0
  -44.8893  -12.7166   -8.0730 N   0  0  0  0  0  0  0  0  0  0  0  0
  -43.9524  -12.9522   -7.0353 C   0  0  0  0  0  0  0  0  0  0  0  0
  -44.0895  -12.4588   -5.8969 O   0  0  0  0  0  0  0  0  0  0  0  0
  -42.9254  -14.0121   -7.2168 C   0  0  0  0  0  0  0  0  0  0  0  0
  -43.4333  -15.2371   -6.4768 C   0  0  0  0  0  0  0  0  0  0  0  0
  -42.5096  -15.4701   -5.2977 C   0  0  0  0  0  0  0  0  0  0  0  0
  -43.4037  -16.3828   -7.4498 C   0  0  0  0  0  0  0  0  0  0  0  0
  -45.3346  -13.8145   -8.9168 C   0  0  0  0  0  0  0  0  0  0  0  0
  -45.2091  -13.3796  -10.3698 C   0  0  0  0  0  0  0  0  0  0  0  0
  -46.5748  -12.4540  -14.1005 O   0  0  0  0  0  0  0  0  0  0  0  0
  -46.5611  -13.6554  -14.6149 N   0  0  0  0  0  0  0  0  0  0  0  0
  -43.6330  -15.8258  -14.8872 C   0  0  0  0  0  0  0  0  0  0  0  0
  -43.2775  -17.1210  -15.2422 C   0  0  0  0  0  0  0  0  0  0  0  0
  1  2  1  0  0  0  0
  2  3  1  0  0  0  0
  3  4  2  0  0  0  0
  4  5  1  0  0  0  0
  5  6  2  0  0  0  0
  6  7  1  0  0  0  0
  7  8  1  0  0  0  0
  8  9  2  0  0  0  0
  9 10  1  0  0  0  0
 10 11  1  0  0  0  0
 11 12  1  0  0  0  0
 12 13  2  0  0  0  0
 12 14  1  0  0  0  0
 11 15  1  0  0  0  0
 15 16  1  0  0  0  0
 16 17  1  0  0  0  0
 17 18  1  0  0  0  0
 18 19  2  0  0  0  0
 18 20  1  0  0  0  0
 20 21  1  0  0  0  0
 21 22  1  0  0  0  0
 21 23  1  0  0  0  0
 17 24  1  0  0  0  0
 24 25  1  0  0  0  0
  9 26  1  0  0  0  0
 26 27  1  0  0  0  0
  6 28  1  0  0  0  0
 28 29  2  0  0  0  0
 29  3  1  0  0  0  0
 27  7  2  0  0  0  0
 25 11  1  0  0  0  0
M  END
>  <zinc_id>  (302) 
ZINC000012220120

>  <smiles>  (302) 
COc1ccc(-c2cc(CC3(C(=O)O)CCN(C(=O)CC(C)C)CC3)on2)cc1

>  <source_line>  (302) 
302

>  <source_data>  (302) 
ZINC000012220120

>  <source_name>  (302) 


>  <source_label>  (302) 
ZINC000012220120

>  <found_by>  (302) 
ZINC

> <Gold.Version>
5.8.1

> <Gold.Id.Protein>
ID|ID_protein|mol2

> <Gold.Goldscore.Fitness>
69.6535

> <Gold.Goldscore.Internal.Vdw>
2.0517

> <Gold.Goldscore.Internal.Torsion>
-20.3118

> <Gold.Goldscore.External.Vdw>
43.5371

> <Gold.Goldscore.Internal.HBond>
0.0000

> <Gold.Goldscore.External.HBond>
14.2883

> <Gold.Goldscore.Internal.Correction>
-13.7617

> <Gold.Goldscore.Hbonds>
donor molecule, donor type, donor heavy atom, donor atom, acceptor molecule, acceptor atom, score
      P1  H   112  4464       L1    26  0.68
      P1  H   441  4840       L1    26  1.00
      P1  H   441  4841       L1    14  0.09
      P1  H  1822  6079       L1     2  0.01
      P1  H  1916  6166       L1    13  1.00

> <Gold.Goldscore.Internal.Vdw.Weighted>
2.0517

> <Gold.Goldscore.Internal.Torsion.Weighted>
-20.3118

> <Gold.Goldscore.External.Vdw.Weighted>
59.8636

> <Gold.Goldscore.Internal.HBond.Weighted>
0.0000

> <Gold.Goldscore.External.HBond.Weighted>
14.2883

> <Gold.Goldscore.Internal.Correction.Weighted>
-13.7617

> <Gold.Protein.RotatedTorsions>
[ 4464  112  111  109 ] final   82.07 input   60.00 | X-H torsion
[ 4839  441  440  439 ] final   21.68 input   60.00 | X-H torsion
[ 4985  758  757  756 ] final  -27.42 input   60.00 | X-H torsion
[ 5271 1023 1022 1020 ] final -172.10 input   60.00 | X-H torsion
[ 6036 1776 1775 1774 ] final -152.34 input   60.00 | X-H torsion
[ 6078 1819 1818 1817 ] final  -46.11 input   60.00 | X-H torsion
[ 6166 1916 1915 1913 ] final -105.00 input   60.00 | X-H torsion
[ 4818   65   64   63 ] final   72.05 input   60.00 | X-H torsion
[ 6268 1997 1996 1994 ] final   51.30 input   60.00 | X-H torsion
[ 8592   72   71   70 ] final  -91.51 input   60.00 | X-H torsion
[ 4356  100   99   97 ] final   -6.55 input   60.00 | X-H torsion
[ 8510  202  201  200 ] final -118.18 input   60.00 | X-H torsion
[ 5330 1065 1064 1063 ] final  179.53 input   60.00 | X-H torsion
[ 6640 2347 2346 2344 ] final -126.29 input   60.00 | X-H torsion
[ 4452  380  379  378 ] final  127.42 input   60.00 | X-H torsion
[ 4500  391  390  389 ] final  -40.65 input   60.00 | X-H torsion

> <Gold.Protein.ActiveResidues>
 THR8    THR9    PRO10   ILE11   TYR12   TYR13   VAL14   ASN15   ALA16   HIS19  
 HIS22   SER25   VAL29   MET46   THR47   GLY48   THR49   ASP50   GLU51   HIS52  
 GLY53   GLN54   LYS55   VAL56   ALA57   GLU58   THR71   PHE78   ILE93   THR95  
 THR96   HIS100  GLU101  VAL104  TRP108  TYR126  VAL128  SER129  ASP130  GLU131 
 SER132  LEU210  SER211  ILE212  SER213  ARG214  LYS215  ARG216  SER218  VAL219 
 MET220  ASN221  TRP222  SER223  ILE224  PRO225  VAL226  HIS232  CYS233  ILE234 
 TYR235  VAL236  TRP237  LEU238  ASP239  ALA240  LEU241  PHE242  ASN243  TYR244 
 TYR245  THR246  HIS275  VAL276  VAL277  GLY278  LYS279  ASP280  ILE281  LEU282 
 LYS283  PHE284  HIS285  ALA286  ILE287  TYR288  TRP289  PRO290  PHE292  LEU304 
 TRP309 

> <Gold.Protein.RotatedAtoms>
  -33.3249   -7.4495   -5.2433 H   0  0  0  0  0  0  0  0  0  0  0  0  # atno 4356 bound_to 100 
  -30.4808   -8.6103   -8.0316 H   0  0  0  0  0  0  0  0  0  0  0  0  # atno 4452 bound_to 380 
  -45.9275  -11.5365  -15.3810 H   0  0  0  0  0  0  0  0  0  0  0  0  # atno 4464 bound_to 112 
  -33.8223  -10.9258  -15.8725 H   0  0  0  0  0  0  0  0  0  0  0  0  # atno 4500 bound_to 391 
  -31.5387  -15.1606   -3.3952 H   0  0  0  0  0  0  0  0  0  0  0  0  # atno 4818 bound_to 65  
  -49.2793  -10.8730  -14.2997 H   0  0  0  0  0  0  0  0  0  0  0  0  # atno 4839 bound_to 441 
  -47.7949  -11.5124  -13.9322 H   0  0  0  0  0  0  0  0  0  0  0  0  # atno 4840 bound_to 441 
  -48.9016  -11.2414  -12.7284 H   0  0  0  0  0  0  0  0  0  0  0  0  # atno 4841 bound_to 441 
  -37.5078  -17.8942  -17.3194 H   0  0  0  0  0  0  0  0  0  0  0  0  # atno 4985 bound_to 758 
  -54.7622  -16.3299  -14.9680 H   0  0  0  0  0  0  0  0  0  0  0  0  # atno 5271 bound_to 1023
  -54.5904  -14.9764   -6.8329 H   0  0  0  0  0  0  0  0  0  0  0  0  # atno 5330 bound_to 1065
  -53.8954  -17.5020  -17.4139 H   0  0  0  0  0  0  0  0  0  0  0  0  # atno 6036 bound_to 1776
  -44.7550  -17.2827  -18.8250 H   0  0  0  0  0  0  0  0  0  0  0  0  # atno 6078 bound_to 1819
  -48.8719  -15.1472  -11.3066 H   0  0  0  0  0  0  0  0  0  0  0  0  # atno 6166 bound_to 1916
  -34.7410  -15.0282   -5.5661 H   0  0  0  0  0  0  0  0  0  0  0  0  # atno 6268 bound_to 1997
  -49.2223  -20.1370   -2.7997 H   0  0  0  0  0  0  0  0  0  0  0  0  # atno 6640 bound_to 2347
  -35.3362   -7.7029   -1.7542 H   0  0  0  0  0  0  0  0  0  0  0  0  # atno 8510 bound_to 202 
  -32.7680   -9.1982   -5.0036 H   0  0  0  0  0  0  0  0  0  0  0  0  # atno 8592 bound_to 72  
  -44.7214  -11.4954  -16.4727 LP  0  0  0  0  0  0  0  0  0  0  0  0  # atno 8618 bound_to 112 
  -45.7553  -10.2377  -16.3461 LP  0  0  0  0  0  0  0  0  0  0  0  0  # atno 8619 bound_to 112 
  -38.7405  -17.2261  -16.4935 LP  0  0  0  0  0  0  0  0  0  0  0  0  # atno 8637 bound_to 758 
  -37.5770  -18.0541  -15.7015 LP  0  0  0  0  0  0  0  0  0  0  0  0  # atno 8638 bound_to 758 
  -54.3280  -17.8712  -14.6782 LP  0  0  0  0  0  0  0  0  0  0  0  0  # atno 8642 bound_to 1023
  -54.3773  -16.7901  -13.4553 LP  0  0  0  0  0  0  0  0  0  0  0  0  # atno 8643 bound_to 1023
  -55.1841  -16.7845  -18.1015 LP  0  0  0  0  0  0  0  0  0  0  0  0  # atno 8662 bound_to 1776
  -53.6798  -16.2193  -18.3919 LP  0  0  0  0  0  0  0  0  0  0  0  0  # atno 8663 bound_to 1776
  -46.0864  -18.1262  -18.4203 LP  0  0  0  0  0  0  0  0  0  0  0  0  # atno 8672 bound_to 1819
  -46.0557  -17.2572  -19.8025 LP  0  0  0  0  0  0  0  0  0  0  0  0  # atno 8673 bound_to 1819
  -50.2664  -15.8098  -10.7924 LP  0  0  0  0  0  0  0  0  0  0  0  0  # atno 8684 bound_to 1916
  -50.1242  -15.2943  -12.3353 LP  0  0  0  0  0  0  0  0  0  0  0  0  # atno 8685 bound_to 1916
  -30.4080  -16.0212   -2.6021 LP  0  0  0  0  0  0  0  0  0  0  0  0  # atno 8712 bound_to 65  
  -31.3270  -16.7351   -3.7477 LP  0  0  0  0  0  0  0  0  0  0  0  0  # atno 8713 bound_to 65  
  -34.6036  -15.4706   -4.0061 LP  0  0  0  0  0  0  0  0  0  0  0  0  # atno 8724 bound_to 1997
  -35.8737  -15.9844   -4.8947 LP  0  0  0  0  0  0  0  0  0  0  0  0  # atno 8725 bound_to 1997
  -31.4715   -8.4468   -4.3691 LP  0  0  0  0  0  0  0  0  0  0  0  0  # atno 8747 bound_to 72  
  -32.2765   -9.5686   -3.4972 LP  0  0  0  0  0  0  0  0  0  0  0  0  # atno 8748 bound_to 72  
  -32.2187   -6.7669   -6.2224 LP  0  0  0  0  0  0  0  0  0  0  0  0  # atno 8749 bound_to 100 
  -32.3509   -8.3926   -6.1434 LP  0  0  0  0  0  0  0  0  0  0  0  0  # atno 8750 bound_to 100 
  -35.5918   -6.5154   -2.8370 LP  0  0  0  0  0  0  0  0  0  0  0  0  # atno 8754 bound_to 202 
  -34.9485   -6.1683   -1.3768 LP  0  0  0  0  0  0  0  0  0  0  0  0  # atno 8755 bound_to 202 
  -54.3526  -14.7434   -8.4258 LP  0  0  0  0  0  0  0  0  0  0  0  0  # atno 8775 bound_to 1065
  -53.8107  -16.1060   -7.7071 LP  0  0  0  0  0  0  0  0  0  0  0  0  # atno 8776 bound_to 1065
  -48.9347  -20.1418   -1.1980 LP  0  0  0  0  0  0  0  0  0  0  0  0  # atno 8779 bound_to 2347
  -49.5364  -21.4737   -1.9265 LP  0  0  0  0  0  0  0  0  0  0  0  0  # atno 8780 bound_to 2347
  -31.2604   -9.8159   -8.7978 LP  0  0  0  0  0  0  0  0  0  0  0  0  # atno 8787 bound_to 380 
  -30.5620   -8.6155   -9.6569 LP  0  0  0  0  0  0  0  0  0  0  0  0  # atno 8788 bound_to 380 

$$$$
