unknown|11k_best|sdf|8275|dock10
  -GOLD-   3 721 0383D 1   1.00000     0.00000

 32 36  0  0  0  0  0  0  0  0  1 V2000
  -44.8919  -14.5797   -5.6418 C   0  0  0  0  0  0  0  0  0  0  0  0
  -45.0771  -14.9540   -6.2294 C   0  0  0  0  0  0  0  0  0  0  0  0
  -46.1695  -14.7195   -7.1709 N   0  0  0  0  0  0  0  0  0  0  0  0
  -46.0607  -14.5111   -8.5054 C   0  0  0  0  0  0  0  0  0  0  0  0
  -47.3025  -14.7455   -9.0868 C   0  0  0  0  0  0  0  0  0  0  0  0
  -47.6767  -14.7297  -10.5059 C   0  0  0  0  0  0  0  0  0  0  0  0
  -46.6350  -14.9214  -11.4432 N   0  0  0  0  0  0  0  0  0  0  0  0
  -45.6160  -13.8982  -11.4542 C   0  0  0  0  0  0  0  0  0  0  0  0
  -46.2972  -12.7297  -12.1646 C   0  0  0  0  0  0  0  0  0  0  0  0
  -46.5543  -13.2082  -13.3954 O   0  0  0  0  0  0  0  0  0  0  0  0
  -47.8425  -14.0177  -13.3559 C   0  0  1  0  0  0  0  0  0  0  0  0
  -47.7011  -14.5352  -14.8893 C   0  0  0  0  0  0  0  0  0  0  0  0
  -47.1696  -15.8224  -15.0101 C   0  0  0  0  0  0  0  0  0  0  0  0
  -47.7679  -16.7817  -15.8288 C   0  0  0  0  0  0  0  0  0  0  0  0
  -46.9854  -17.7394  -16.6265 C   0  0  0  0  0  0  0  0  0  0  0  0
  -47.6095  -18.6437  -17.2640 O   0  0  0  0  0  0  0  0  0  0  0  0
  -45.6508  -18.1511  -16.3491 N   0  0  0  0  0  0  0  0  0  0  0  0
  -44.7482  -17.4029  -15.5227 C   0  0  0  0  0  0  0  0  0  0  0  0
  -44.7566  -16.0423  -15.6150 N   0  0  0  0  0  0  0  0  0  0  0  0
  -44.1334  -15.5017  -14.5591 C   0  0  0  0  0  0  0  0  0  0  0  0
  -42.8380  -16.0055  -14.4658 C   0  0  0  0  0  0  0  0  0  0  0  0
  -43.0890  -17.5774  -15.1294 S   0  0  0  0  0  0  0  0  0  0  0  0
  -49.0326  -16.4193  -16.2905 C   0  0  0  0  0  0  0  0  0  0  0  0
  -49.8501  -17.4498  -16.6688 C   0  0  0  0  0  0  0  0  0  0  0  0
  -51.2057  -17.1427  -16.7437 C   0  0  0  0  0  0  0  0  0  0  0  0
  -51.5692  -15.8222  -16.9805 C   0  0  0  0  0  0  0  0  0  0  0  0
  -50.6436  -14.7876  -16.9716 C   0  0  0  0  0  0  0  0  0  0  0  0
  -49.3672  -15.0850  -16.5119 C   0  0  0  0  0  0  0  0  0  0  0  0
  -48.6471  -14.2171  -15.7523 N   0  0  0  0  0  0  0  0  0  0  0  0
  -47.0496  -15.3419  -12.7596 C   0  0  0  0  0  0  0  0  0  0  0  0
  -48.0113  -15.4074   -8.0901 C   0  0  0  0  0  0  0  0  0  0  0  0
  -47.3713  -15.2405   -6.9225 N   0  0  0  0  0  0  0  0  0  0  0  0
  1  2  1  0  0  0  0
  2  3  1  0  0  0  0
  3  4  1  0  0  0  0
  4  5  2  0  0  0  0
  5  6  1  0  0  0  0
  6  7  1  0  0  0  0
  7  8  1  0  0  0  0
  8  9  1  0  0  0  0
  9 10  1  0  0  0  0
 10 11  1  0  0  0  0
 11 12  1  0  0  0  0
 12 13  2  0  0  0  0
 13 14  1  0  0  0  0
 14 15  1  0  0  0  0
 15 16  2  0  0  0  0
 15 17  1  0  0  0  0
 17 18  1  0  0  0  0
 18 19  2  0  0  0  0
 19 20  1  0  0  0  0
 20 21  2  0  0  0  0
 21 22  1  0  0  0  0
 14 23  2  0  0  0  0
 23 24  1  0  0  0  0
 24 25  2  0  0  0  0
 25 26  1  0  0  0  0
 26 27  2  0  0  0  0
 27 28  1  0  0  0  0
 28 29  2  0  0  0  0
 11 30  1  0  0  0  0
  5 31  1  0  0  0  0
 31 32  2  0  0  0  0
 32  3  1  0  0  0  0
 30  7  1  0  0  0  0
 29 12  1  0  0  0  0
 22 18  1  0  0  0  0
 28 23  1  0  0  0  0
M  END
>  <zinc_id>  (275) 
ZINC000019762915

>  <smiles>  (275) 
CCn1cc(CN2CCO[C@@H](c3cc(C(=O)Nc4nccs4)c4ccccc4n3)C2)cn1

>  <source_line>  (275) 
275

>  <source_data>  (275) 
ZINC000019762915

>  <source_name>  (275) 


>  <source_label>  (275) 
ZINC000019762915

>  <found_by>  (275) 
ZINC

> <Gold.Version>
5.8.1

> <Gold.Id.Protein>
ID|ID_protein|mol2

> <Gold.Goldscore.Fitness>
77.5938

> <Gold.Goldscore.Internal.Vdw>
-7.4055

> <Gold.Goldscore.Internal.Torsion>
-7.8791

> <Gold.Goldscore.External.Vdw>
58.2880

> <Gold.Goldscore.Internal.HBond>
0.0000

> <Gold.Goldscore.External.HBond>
8.2278

> <Gold.Goldscore.Internal.Correction>
-4.5045

> <Gold.Goldscore.Hbonds>
donor molecule, donor type, donor heavy atom, donor atom, acceptor molecule, acceptor atom, score
      P1  H   112  4464       L1    10  0.19
      P1  H   426  4822       L1    29  0.24
      P1  H   441  4839       L1    10  1.00
      P1  H  1819  6078       L1    16  0.68

> <Gold.Goldscore.Internal.Vdw.Weighted>
-7.4055

> <Gold.Goldscore.Internal.Torsion.Weighted>
-7.8791

> <Gold.Goldscore.External.Vdw.Weighted>
80.1460

> <Gold.Goldscore.Internal.HBond.Weighted>
0.0000

> <Gold.Goldscore.External.HBond.Weighted>
8.2278

> <Gold.Goldscore.Internal.Correction.Weighted>
-4.5045

> <Gold.Protein.RotatedTorsions>
[ 4464  112  111  109 ] final   72.62 input   60.00 | X-H torsion
[ 4839  441  440  439 ] final  164.68 input   60.00 | X-H torsion
[ 4985  758  757  756 ] final    0.45 input   60.00 | X-H torsion
[ 5271 1023 1022 1020 ] final -125.20 input   60.00 | X-H torsion
[ 6036 1776 1775 1774 ] final  103.18 input   60.00 | X-H torsion
[ 6078 1819 1818 1817 ] final  171.70 input   60.00 | X-H torsion
[ 6166 1916 1915 1913 ] final   63.18 input   60.00 | X-H torsion
[ 4818   65   64   63 ] final  -17.69 input   60.00 | X-H torsion
[ 6268 1997 1996 1994 ] final   15.91 input   60.00 | X-H torsion
[ 8592   72   71   70 ] final  171.92 input   60.00 | X-H torsion
[ 4356  100   99   97 ] final -134.80 input   60.00 | X-H torsion
[ 8510  202  201  200 ] final -173.18 input   60.00 | X-H torsion
[ 5330 1065 1064 1063 ] final -158.27 input   60.00 | X-H torsion
[ 6640 2347 2346 2344 ] final  151.73 input   60.00 | X-H torsion
[ 4452  380  379  378 ] final   50.26 input   60.00 | X-H torsion
[ 4500  391  390  389 ] final  110.65 input   60.00 | X-H torsion

> <Gold.Protein.ActiveResidues>
 THR8    THR9    PRO10   ILE11   TYR12   TYR13   VAL14   ASN15   ALA16   HIS19  
 HIS22   SER25   VAL29   MET46   THR47   GLY48   THR49   ASP50   GLU51   HIS52  
 GLY53   GLN54   LYS55   VAL56   ALA57   GLU58   THR71   PHE78   ILE93   THR95  
 THR96   HIS100  GLU101  VAL104  TRP108  TYR126  VAL128  SER129  ASP130  GLU131 
 SER132  LEU210  SER211  ILE212  SER213  ARG214  LYS215  ARG216  SER218  VAL219 
 MET220  ASN221  TRP222  SER223  ILE224  PRO225  VAL226  HIS232  CYS233  ILE234 
 TYR235  VAL236  TRP237  LEU238  ASP239  ALA240  LEU241  PHE242  ASN243  TYR244 
 TYR245  THR246  HIS275  VAL276  VAL277  GLY278  LYS279  ASP280  ILE281  LEU282 
 LYS283  PHE284  HIS285  ALA286  ILE287  TYR288  TRP289  PRO290  PHE292  LEU304 
 TRP309 

> <Gold.Protein.RotatedAtoms>
  -32.1471   -6.8577   -6.2926 H   0  0  0  0  0  0  0  0  0  0  0  0  # atno 4356 bound_to 100 
  -31.0928   -9.5952   -8.1701 H   0  0  0  0  0  0  0  0  0  0  0  0  # atno 4452 bound_to 380 
  -45.8240  -11.6488  -15.4022 H   0  0  0  0  0  0  0  0  0  0  0  0  # atno 4464 bound_to 112 
  -35.3466  -10.5553  -16.7834 H   0  0  0  0  0  0  0  0  0  0  0  0  # atno 4500 bound_to 391 
  -30.5663  -15.5571   -2.5937 H   0  0  0  0  0  0  0  0  0  0  0  0  # atno 4818 bound_to 65  
  -47.7784  -11.5714  -13.5556 H   0  0  0  0  0  0  0  0  0  0  0  0  # atno 4839 bound_to 441 
  -49.2171  -11.0945  -12.8848 H   0  0  0  0  0  0  0  0  0  0  0  0  # atno 4840 bound_to 441 
  -48.9803  -10.9609  -14.5199 H   0  0  0  0  0  0  0  0  0  0  0  0  # atno 4841 bound_to 441 
  -37.2462  -18.0963  -17.0130 H   0  0  0  0  0  0  0  0  0  0  0  0  # atno 4985 bound_to 758 
  -54.6970  -16.0882  -14.2662 H   0  0  0  0  0  0  0  0  0  0  0  0  # atno 5271 bound_to 1023
  -54.4480  -15.2937   -6.7381 H   0  0  0  0  0  0  0  0  0  0  0  0  # atno 5330 bound_to 1065
  -55.1765  -16.9854  -17.9467 H   0  0  0  0  0  0  0  0  0  0  0  0  # atno 6036 bound_to 1776
  -46.3316  -18.0773  -18.6815 H   0  0  0  0  0  0  0  0  0  0  0  0  # atno 6078 bound_to 1819
  -50.5958  -15.6222  -11.8273 H   0  0  0  0  0  0  0  0  0  0  0  0  # atno 6166 bound_to 1916
  -34.3803  -14.9438   -5.1340 H   0  0  0  0  0  0  0  0  0  0  0  0  # atno 6268 bound_to 1997
  -48.8871  -19.7652   -1.6781 H   0  0  0  0  0  0  0  0  0  0  0  0  # atno 6640 bound_to 2347
  -35.6189   -7.4801   -2.5402 H   0  0  0  0  0  0  0  0  0  0  0  0  # atno 8510 bound_to 202 
  -31.6459   -8.4193   -4.7075 H   0  0  0  0  0  0  0  0  0  0  0  0  # atno 8592 bound_to 72  
  -44.7148  -11.3665  -16.5590 LP  0  0  0  0  0  0  0  0  0  0  0  0  # atno 8618 bound_to 112 
  -45.8661  -10.2536  -16.2385 LP  0  0  0  0  0  0  0  0  0  0  0  0  # atno 8619 bound_to 112 
  -38.6287  -17.2417  -16.9333 LP  0  0  0  0  0  0  0  0  0  0  0  0  # atno 8637 bound_to 758 
  -37.9524  -17.8349  -15.5704 LP  0  0  0  0  0  0  0  0  0  0  0  0  # atno 8638 bound_to 758 
  -54.5411  -17.3976  -15.2198 LP  0  0  0  0  0  0  0  0  0  0  0  0  # atno 8642 bound_to 1023
  -54.2298  -17.5070  -13.6205 LP  0  0  0  0  0  0  0  0  0  0  0  0  # atno 8643 bound_to 1023
  -53.9000  -16.1305  -18.4835 LP  0  0  0  0  0  0  0  0  0  0  0  0  # atno 8662 bound_to 1776
  -53.6739  -17.3936  -17.4734 LP  0  0  0  0  0  0  0  0  0  0  0  0  # atno 8663 bound_to 1776
  -45.7328  -17.0944  -19.8319 LP  0  0  0  0  0  0  0  0  0  0  0  0  # atno 8672 bound_to 1819
  -44.8216  -17.4887  -18.5354 LP  0  0  0  0  0  0  0  0  0  0  0  0  # atno 8673 bound_to 1819
  -49.1004  -15.0122  -12.0261 LP  0  0  0  0  0  0  0  0  0  0  0  0  # atno 8684 bound_to 1916
  -49.5540  -15.6135  -10.5773 LP  0  0  0  0  0  0  0  0  0  0  0  0  # atno 8685 bound_to 1916
  -30.9648  -16.8828   -3.4491 LP  0  0  0  0  0  0  0  0  0  0  0  0  # atno 8712 bound_to 65  
  -31.7494  -15.4742   -3.7080 LP  0  0  0  0  0  0  0  0  0  0  0  0  # atno 8713 bound_to 65  
  -35.0695  -15.7961   -3.9312 LP  0  0  0  0  0  0  0  0  0  0  0  0  # atno 8724 bound_to 1997
  -35.7712  -15.7438   -5.4048 LP  0  0  0  0  0  0  0  0  0  0  0  0  # atno 8725 bound_to 1997
  -31.9691   -9.3552   -3.4161 LP  0  0  0  0  0  0  0  0  0  0  0  0  # atno 8747 bound_to 72  
  -32.9090   -9.4445   -4.7485 LP  0  0  0  0  0  0  0  0  0  0  0  0  # atno 8748 bound_to 72  
  -32.4457   -8.4402   -6.0590 LP  0  0  0  0  0  0  0  0  0  0  0  0  # atno 8749 bound_to 100 
  -33.3100   -7.3152   -5.2503 LP  0  0  0  0  0  0  0  0  0  0  0  0  # atno 8750 bound_to 100 
  -35.2798   -5.9071   -2.2979 LP  0  0  0  0  0  0  0  0  0  0  0  0  # atno 8754 bound_to 202 
  -34.9757   -7.0011   -1.1243 LP  0  0  0  0  0  0  0  0  0  0  0  0  # atno 8755 bound_to 202 
  -54.5153  -14.5357   -8.1765 LP  0  0  0  0  0  0  0  0  0  0  0  0  # atno 8775 bound_to 1065
  -53.7914  -15.9942   -8.0520 LP  0  0  0  0  0  0  0  0  0  0  0  0  # atno 8776 bound_to 1065
  -49.3688  -21.2879   -1.3657 LP  0  0  0  0  0  0  0  0  0  0  0  0  # atno 8779 bound_to 2347
  -49.4399  -20.7021   -2.8884 LP  0  0  0  0  0  0  0  0  0  0  0  0  # atno 8780 bound_to 2347
  -30.9229   -9.1962   -9.7385 LP  0  0  0  0  0  0  0  0  0  0  0  0  # atno 8787 bound_to 380 
  -30.2832   -8.2434   -8.5768 LP  0  0  0  0  0  0  0  0  0  0  0  0  # atno 8788 bound_to 380 

$$$$
