unknown|11k_best|sdf|8272|dock6
  -GOLD-   3 721 0343D 1   1.00000     0.00000

 27 29  0  0  0  0  0  0  0  0  3 V2000
  -51.1310  -17.9654   -7.9982 C   0  0  0  0  0  0  0  0  0  0  0  0
  -51.0397  -16.9736   -9.1362 C   0  0  0  0  0  0  0  0  0  0  0  0
  -50.5195  -15.6487   -8.6731 C   0  0  0  0  0  0  0  0  0  0  0  0
  -50.7355  -14.4856   -9.4022 C   0  0  0  0  0  0  0  0  0  0  0  0
  -49.7407  -13.5232   -9.5228 C   0  0  0  0  0  0  0  0  0  0  0  0
  -48.5365  -13.6671   -8.8545 C   0  0  0  0  0  0  0  0  0  0  0  0
  -47.3523  -13.1338   -9.4452 N   0  0  0  0  0  0  0  0  0  0  0  0
  -46.0896  -13.2949   -8.8022 C   0  0  0  0  0  0  0  0  0  0  0  0
  -46.0536  -13.7894   -7.6368 O   0  0  0  0  0  0  0  0  0  0  0  0
  -44.8262  -12.9276   -9.5136 C   0  0  0  0  0  0  0  0  0  0  0  0
  -45.2516  -12.1110  -11.0883 S   0  0  0  0  0  0  0  0  0  0  0  0
  -45.7953  -13.3262  -12.2855 C   0  0  0  0  0  0  0  0  0  0  0  0
  -45.0247  -14.2959  -12.8325 N   0  0  0  0  0  0  0  0  0  0  0  0
  -45.6910  -14.8319  -13.8575 C   0  0  0  0  0  0  0  0  0  0  0  0
  -45.6197  -16.1583  -14.4506 C   0  0  0  0  0  0  0  0  0  0  0  0
  -44.3890  -16.6872  -14.8187 C   0  0  0  0  0  0  0  0  0  0  0  0
  -44.2575  -17.5633  -15.8800 C   0  0  0  0  0  0  0  0  0  0  0  0
  -45.4043  -18.2623  -16.2311 C   0  0  0  0  0  0  0  0  0  0  0  0
  -46.6645  -17.7463  -15.9630 C   0  0  0  0  0  0  0  0  0  0  0  0
  -47.7404  -17.9171  -16.8926 N   0  3  0  0  0  0  0  0  0  0  0  0
  -48.8469  -17.4230  -16.6481 O   0  0  0  0  0  0  0  0  0  0  0  0
  -47.6538  -18.8442  -17.9167 O   0  5  0  0  0  0  0  0  0  0  0  0
  -46.7369  -16.8389  -14.9163 C   0  0  0  0  0  0  0  0  0  0  0  0
  -46.6542  -13.9381  -14.1785 N   0  0  0  0  0  0  0  0  0  0  0  0
  -46.7955  -13.0842  -13.1659 N   0  0  0  0  0  0  0  0  0  0  0  0
  -48.5042  -14.6255   -7.8543 C   0  0  0  0  0  0  0  0  0  0  0  0
  -49.5238  -15.5583   -7.7081 C   0  0  0  0  0  0  0  0  0  0  0  0
  1  2  1  0  0  0  0
  2  3  1  0  0  0  0
  3  4  2  0  0  0  0
  4  5  1  0  0  0  0
  5  6  2  0  0  0  0
  6  7  1  0  0  0  0
  7  8  1  0  0  0  0
  8  9  2  0  0  0  0
  8 10  1  0  0  0  0
 10 11  1  0  0  0  0
 11 12  1  0  0  0  0
 12 13  2  0  0  0  0
 13 14  1  0  0  0  0
 14 15  1  0  0  0  0
 15 16  2  0  0  0  0
 16 17  1  0  0  0  0
 17 18  2  0  0  0  0
 18 19  1  0  0  0  0
 19 20  1  0  0  0  0
 20 21  2  0  0  0  0
 20 22  1  0  0  0  0
 19 23  2  0  0  0  0
 14 24  2  0  0  0  0
 24 25  1  0  0  0  0
  6 26  1  0  0  0  0
 26 27  2  0  0  0  0
 27  3  1  0  0  0  0
 25 12  1  0  0  0  0
 23 15  1  0  0  0  0
M  CHG  1  20   1
M  CHG  1  22  -1
M  END
>  <zinc_id>  (272) 
ZINC000005556830

>  <smiles>  (272) 
CCc1ccc(NC(=O)CSc2nc(-c3cccc([N+](=O)[O-])c3)n[nH]2)cc1

>  <source_line>  (272) 
272

>  <source_data>  (272) 
ZINC000005556830

>  <source_name>  (272) 


>  <source_label>  (272) 
ZINC000005556830

>  <found_by>  (272) 
ZINC

> <Gold.Version>
5.8.1

> <Gold.Id.Protein>
ID|ID_protein|mol2

> <Gold.Goldscore.Fitness>
65.9720

> <Gold.Goldscore.Internal.Vdw>
0.8744

> <Gold.Goldscore.Internal.Torsion>
-6.7015

> <Gold.Goldscore.External.Vdw>
42.7712

> <Gold.Goldscore.Internal.HBond>
0.0000

> <Gold.Goldscore.External.HBond>
12.0000

> <Gold.Goldscore.Internal.Correction>
-0.9887

> <Gold.Goldscore.Hbonds>
donor molecule, donor type, donor heavy atom, donor atom, acceptor molecule, acceptor atom, score
      P1  H   441  4840       L1    25  1.00
      P1  H  1819  6078       L1    22  1.00

> <Gold.Goldscore.Internal.Vdw.Weighted>
0.8744

> <Gold.Goldscore.Internal.Torsion.Weighted>
-6.7015

> <Gold.Goldscore.External.Vdw.Weighted>
58.8105

> <Gold.Goldscore.Internal.HBond.Weighted>
0.0000

> <Gold.Goldscore.External.HBond.Weighted>
12.0000

> <Gold.Goldscore.Internal.Correction.Weighted>
-0.9887

> <Gold.Protein.RotatedTorsions>
[ 4464  112  111  109 ] final  126.49 input   60.00 | X-H torsion
[ 4839  441  440  439 ] final   56.68 input   60.00 | X-H torsion
[ 4985  758  757  756 ] final -117.15 input   60.00 | X-H torsion
[ 5271 1023 1022 1020 ] final  -36.75 input   60.00 | X-H torsion
[ 6036 1776 1775 1774 ] final  142.78 input   60.00 | X-H torsion
[ 6078 1819 1818 1817 ] final  166.96 input   60.00 | X-H torsion
[ 6166 1916 1915 1913 ] final  -96.05 input   60.00 | X-H torsion
[ 4818   65   64   63 ] final -136.96 input   60.00 | X-H torsion
[ 6268 1997 1996 1994 ] final  151.34 input   60.00 | X-H torsion
[ 8592   72   71   70 ] final    8.74 input   60.00 | X-H torsion
[ 4356  100   99   97 ] final  -93.33 input   60.00 | X-H torsion
[ 8510  202  201  200 ] final -139.48 input   60.00 | X-H torsion
[ 5330 1065 1064 1063 ] final   53.18 input   60.00 | X-H torsion
[ 6640 2347 2346 2344 ] final  170.93 input   60.00 | X-H torsion
[ 4452  380  379  378 ] final   33.98 input   60.00 | X-H torsion
[ 4500  391  390  389 ] final   64.59 input   60.00 | X-H torsion

> <Gold.Protein.ActiveResidues>
 THR8    THR9    PRO10   ILE11   TYR12   TYR13   VAL14   ASN15   ALA16   HIS19  
 HIS22   SER25   VAL29   MET46   THR47   GLY48   THR49   ASP50   GLU51   HIS52  
 GLY53   GLN54   LYS55   VAL56   ALA57   GLU58   THR71   PHE78   ILE93   THR95  
 THR96   HIS100  GLU101  VAL104  TRP108  TYR126  VAL128  SER129  ASP130  GLU131 
 SER132  LEU210  SER211  ILE212  SER213  ARG214  LYS215  ARG216  SER218  VAL219 
 MET220  ASN221  TRP222  SER223  ILE224  PRO225  VAL226  HIS232  CYS233  ILE234 
 TYR235  VAL236  TRP237  LEU238  ASP239  ALA240  LEU241  PHE242  ASN243  TYR244 
 TYR245  THR246  HIS275  VAL276  VAL277  GLY278  LYS279  ASP280  ILE281  LEU282 
 LYS283  PHE284  HIS285  ALA286  ILE287  TYR288  TRP289  PRO290  PHE292  LEU304 
 TRP309 

> <Gold.Protein.RotatedAtoms>
  -32.5973   -6.6007   -5.8795 H   0  0  0  0  0  0  0  0  0  0  0  0  # atno 4356 bound_to 100 
  -31.1825   -9.7250   -8.3831 H   0  0  0  0  0  0  0  0  0  0  0  0  # atno 4452 bound_to 380 
  -46.2110  -10.9043  -15.5254 H   0  0  0  0  0  0  0  0  0  0  0  0  # atno 4464 bound_to 112 
  -35.1995  -11.1538  -16.3873 H   0  0  0  0  0  0  0  0  0  0  0  0  # atno 4500 bound_to 391 
  -30.9556  -16.8764   -3.4411 H   0  0  0  0  0  0  0  0  0  0  0  0  # atno 4818 bound_to 65  
  -48.8006  -11.0235  -14.5815 H   0  0  0  0  0  0  0  0  0  0  0  0  # atno 4839 bound_to 441 
  -47.8261  -11.5795  -13.3614 H   0  0  0  0  0  0  0  0  0  0  0  0  # atno 4840 bound_to 441 
  -49.3493  -11.0238  -13.0174 H   0  0  0  0  0  0  0  0  0  0  0  0  # atno 4841 bound_to 441 
  -38.6050  -17.2500  -16.9644 H   0  0  0  0  0  0  0  0  0  0  0  0  # atno 4985 bound_to 758 
  -54.3185  -17.0340  -13.4489 H   0  0  0  0  0  0  0  0  0  0  0  0  # atno 5271 bound_to 1023
  -54.3039  -14.8232   -8.4720 H   0  0  0  0  0  0  0  0  0  0  0  0  # atno 5330 bound_to 1065
  -54.8817  -17.4131  -17.5827 H   0  0  0  0  0  0  0  0  0  0  0  0  # atno 6036 bound_to 1776
  -46.3725  -18.0568  -18.7441 H   0  0  0  0  0  0  0  0  0  0  0  0  # atno 6078 bound_to 1819
  -48.8700  -15.1045  -11.4463 H   0  0  0  0  0  0  0  0  0  0  0  0  # atno 6166 bound_to 1916
  -35.8458  -15.8658   -5.1969 H   0  0  0  0  0  0  0  0  0  0  0  0  # atno 6268 bound_to 1997
  -48.9196  -19.7003   -1.9819 H   0  0  0  0  0  0  0  0  0  0  0  0  # atno 6640 bound_to 2347
  -35.4670   -7.7134   -2.0743 H   0  0  0  0  0  0  0  0  0  0  0  0  # atno 8510 bound_to 202 
  -32.5206   -9.6831   -3.6738 H   0  0  0  0  0  0  0  0  0  0  0  0  # atno 8592 bound_to 72  
  -45.0067  -11.9064  -15.9651 LP  0  0  0  0  0  0  0  0  0  0  0  0  # atno 8618 bound_to 112 
  -45.1844  -10.4634  -16.7084 LP  0  0  0  0  0  0  0  0  0  0  0  0  # atno 8619 bound_to 112 
  -37.9858  -17.8140  -15.5692 LP  0  0  0  0  0  0  0  0  0  0  0  0  # atno 8637 bound_to 758 
  -37.2267  -18.1149  -16.9834 LP  0  0  0  0  0  0  0  0  0  0  0  0  # atno 8638 bound_to 758 
  -54.7597  -16.1834  -14.7643 LP  0  0  0  0  0  0  0  0  0  0  0  0  # atno 8642 bound_to 1023
  -54.3925  -17.7689  -14.8990 LP  0  0  0  0  0  0  0  0  0  0  0  0  # atno 8643 bound_to 1023
  -54.5363  -16.1421  -18.5384 LP  0  0  0  0  0  0  0  0  0  0  0  0  # atno 8662 bound_to 1776
  -53.3345  -16.9512  -17.7851 LP  0  0  0  0  0  0  0  0  0  0  0  0  # atno 8663 bound_to 1776
  -45.6600  -17.0678  -19.8223 LP  0  0  0  0  0  0  0  0  0  0  0  0  # atno 8672 bound_to 1819
  -44.8532  -17.5360  -18.4819 LP  0  0  0  0  0  0  0  0  0  0  0  0  # atno 8673 bound_to 1819
  -50.1472  -15.7915  -10.7082 LP  0  0  0  0  0  0  0  0  0  0  0  0  # atno 8684 bound_to 1916
  -50.2453  -15.3556  -12.2789 LP  0  0  0  0  0  0  0  0  0  0  0  0  # atno 8685 bound_to 1916
  -31.7523  -15.4840   -3.7142 LP  0  0  0  0  0  0  0  0  0  0  0  0  # atno 8712 bound_to 65  
  -30.5700  -15.5445   -2.5894 LP  0  0  0  0  0  0  0  0  0  0  0  0  # atno 8713 bound_to 65  
  -34.5095  -14.9500   -5.3506 LP  0  0  0  0  0  0  0  0  0  0  0  0  # atno 8724 bound_to 1997
  -34.8553  -15.6614   -3.9220 LP  0  0  0  0  0  0  0  0  0  0  0  0  # atno 8725 bound_to 1997
  -32.5813   -8.9711   -5.1358 LP  0  0  0  0  0  0  0  0  0  0  0  0  # atno 8747 bound_to 72  
  -31.4159   -8.5559   -4.0698 LP  0  0  0  0  0  0  0  0  0  0  0  0  # atno 8748 bound_to 72  
  -32.0461   -8.0369   -6.4100 LP  0  0  0  0  0  0  0  0  0  0  0  0  # atno 8749 bound_to 100 
  -33.2563   -7.9774   -5.3152 LP  0  0  0  0  0  0  0  0  0  0  0  0  # atno 8750 bound_to 100 
  -35.4895   -6.2116   -2.7005 LP  0  0  0  0  0  0  0  0  0  0  0  0  # atno 8754 bound_to 202 
  -34.9189   -6.4615   -1.1910 LP  0  0  0  0  0  0  0  0  0  0  0  0  # atno 8755 bound_to 202 
  -53.8286  -16.1155   -7.6047 LP  0  0  0  0  0  0  0  0  0  0  0  0  # atno 8775 bound_to 1065
  -54.6232  -14.8881   -6.8776 LP  0  0  0  0  0  0  0  0  0  0  0  0  # atno 8776 bound_to 1065
  -49.2562  -21.0695   -1.1694 LP  0  0  0  0  0  0  0  0  0  0  0  0  # atno 8779 bound_to 2347
  -49.5199  -20.9859   -2.7787 LP  0  0  0  0  0  0  0  0  0  0  0  0  # atno 8780 bound_to 2347
  -30.7849   -8.9696   -9.7685 LP  0  0  0  0  0  0  0  0  0  0  0  0  # atno 8787 bound_to 380 
  -30.3309   -8.3392   -8.3322 LP  0  0  0  0  0  0  0  0  0  0  0  0  # atno 8788 bound_to 380 

$$$$
