unknown|11k_best|sdf|8248|dock7
  -GOLD-   3 721 0 43D 1   1.00000     0.00000

 26 28  0  0  0  0  0  0  0  0  1 V2000
  -51.3569  -20.1441   -7.9215 O   0  0  0  0  0  0  0  0  0  0  0  0
  -51.8648  -19.0063   -7.6868 C   0  0  0  0  0  0  0  0  0  0  0  0
  -52.0389  -18.6618   -6.2411 C   0  0  0  0  0  0  0  0  0  0  0  0
  -51.7403  -19.9265   -5.4589 C   0  0  0  0  0  0  0  0  0  0  0  0
  -52.9283  -20.7995   -5.3372 C   0  0  0  0  0  0  0  0  0  0  0  0
  -52.9170  -21.9873   -6.0256 C   0  0  0  0  0  0  0  0  0  0  0  0
  -53.7339  -23.0308   -5.6803 C   0  0  0  0  0  0  0  0  0  0  0  0
  -54.7315  -22.7756   -4.7461 C   0  0  0  0  0  0  0  0  0  0  0  0
  -55.5653  -24.1887   -4.1141 Cl  0  0  0  0  0  0  0  0  0  0  0  0
  -54.7989  -21.5799   -4.0491 C   0  0  0  0  0  0  0  0  0  0  0  0
  -53.8106  -20.6599   -4.2836 C   0  0  0  0  0  0  0  0  0  0  0  0
  -51.5616  -17.9233   -8.5724 N   0  0  0  0  0  0  0  0  0  0  0  0
  -51.8390  -16.5493   -8.1660 C   0  0  0  0  0  0  0  0  0  0  0  0
  -50.6147  -15.7695   -8.4316 C   0  0  0  0  0  0  0  0  0  0  0  0
  -50.5702  -14.7932   -9.4198 C   0  0  0  0  0  0  0  0  0  0  0  0
  -49.3464  -14.1519   -9.5695 C   0  0  0  0  0  0  0  0  0  0  0  0
  -48.1835  -14.8414   -9.2614 C   0  0  0  0  0  0  0  0  0  0  0  0
  -46.9474  -14.7356  -10.0943 C   0  0  0  0  0  0  0  0  0  0  0  0
  -47.0345  -13.5584  -10.9361 N   0  0  0  0  0  0  0  0  0  0  0  0
  -47.6690  -13.8662  -12.2109 C   0  0  0  0  0  0  0  0  0  0  0  0
  -46.5778  -13.8950  -13.2450 C   0  0  0  0  0  0  0  0  0  0  0  0
  -46.0575  -12.6145  -13.3973 O   0  0  0  0  0  0  0  0  0  0  0  0
  -45.7225  -12.0220  -12.1899 C   0  0  0  0  0  0  0  0  0  0  0  0
  -45.6627  -13.1008  -11.1411 C   0  0  0  0  0  0  0  0  0  0  0  0
  -48.2113  -15.7289   -8.2038 C   0  0  0  0  0  0  0  0  0  0  0  0
  -49.4524  -16.1757   -7.7875 C   0  0  0  0  0  0  0  0  0  0  0  0
  1  2  2  0  0  0  0
  2  3  1  0  0  0  0
  3  4  1  0  0  0  0
  4  5  1  0  0  0  0
  5  6  2  0  0  0  0
  6  7  1  0  0  0  0
  7  8  2  0  0  0  0
  8  9  1  0  0  0  0
  8 10  1  0  0  0  0
 10 11  2  0  0  0  0
  2 12  1  0  0  0  0
 12 13  1  0  0  0  0
 13 14  1  0  0  0  0
 14 15  2  0  0  0  0
 15 16  1  0  0  0  0
 16 17  2  0  0  0  0
 17 18  1  0  0  0  0
 18 19  1  0  0  0  0
 19 20  1  0  0  0  0
 20 21  1  0  0  0  0
 21 22  1  0  0  0  0
 22 23  1  0  0  0  0
 23 24  1  0  0  0  0
 17 25  1  0  0  0  0
 25 26  2  0  0  0  0
 11  5  1  0  0  0  0
 26 14  1  0  0  0  0
 24 19  1  0  0  0  0
M  END
>  <zinc_id>  (248) 
ZINC000024616931

>  <smiles>  (248) 
O=C(CCc1ccc(Cl)cc1)NCc1ccc(CN2CCOCC2)cc1

>  <source_line>  (248) 
248

>  <source_data>  (248) 
ZINC000024616931

>  <source_name>  (248) 


>  <source_label>  (248) 
ZINC000024616931

>  <found_by>  (248) 
ZINC

> <Gold.Version>
5.8.1

> <Gold.Id.Protein>
ID|ID_protein|mol2

> <Gold.Goldscore.Fitness>
55.3619

> <Gold.Goldscore.Internal.Vdw>
0.5659

> <Gold.Goldscore.Internal.Torsion>
-2.8643

> <Gold.Goldscore.External.Vdw>
35.2440

> <Gold.Goldscore.Internal.HBond>
0.0000

> <Gold.Goldscore.External.HBond>
10.4532

> <Gold.Goldscore.Internal.Correction>
1.2535

> <Gold.Goldscore.Hbonds>
donor molecule, donor type, donor heavy atom, donor atom, acceptor molecule, acceptor atom, score
      P1  H   441  4840       L1    22  1.00
      P1  H  1741  5997       L1     1  0.70
      P1  H  1932  6181       L1     1  0.13

> <Gold.Goldscore.Internal.Vdw.Weighted>
0.5659

> <Gold.Goldscore.Internal.Torsion.Weighted>
-2.8643

> <Gold.Goldscore.External.Vdw.Weighted>
48.4606

> <Gold.Goldscore.Internal.HBond.Weighted>
0.0000

> <Gold.Goldscore.External.HBond.Weighted>
10.4532

> <Gold.Goldscore.Internal.Correction.Weighted>
1.2535

> <Gold.Protein.RotatedTorsions>
[ 4464  112  111  109 ] final -151.98 input   60.00 | X-H torsion
[ 4839  441  440  439 ] final   49.08 input   60.00 | X-H torsion
[ 4985  758  757  756 ] final   95.46 input   60.00 | X-H torsion
[ 5271 1023 1022 1020 ] final -109.90 input   60.00 | X-H torsion
[ 6036 1776 1775 1774 ] final  132.35 input   60.00 | X-H torsion
[ 6078 1819 1818 1817 ] final -175.50 input   60.00 | X-H torsion
[ 6166 1916 1915 1913 ] final   24.38 input   60.00 | X-H torsion
[ 4818   65   64   63 ] final  114.60 input   60.00 | X-H torsion
[ 6268 1997 1996 1994 ] final   49.40 input   60.00 | X-H torsion
[ 8592   72   71   70 ] final -131.60 input   60.00 | X-H torsion
[ 4356  100   99   97 ] final   98.19 input   60.00 | X-H torsion
[ 8510  202  201  200 ] final -158.87 input   60.00 | X-H torsion
[ 5330 1065 1064 1063 ] final  -71.40 input   60.00 | X-H torsion
[ 6640 2347 2346 2344 ] final    3.59 input   60.00 | X-H torsion
[ 4452  380  379  378 ] final -132.26 input   60.00 | X-H torsion
[ 4500  391  390  389 ] final -128.81 input   60.00 | X-H torsion

> <Gold.Protein.ActiveResidues>
 THR8    THR9    PRO10   ILE11   TYR12   TYR13   VAL14   ASN15   ALA16   HIS19  
 HIS22   SER25   VAL29   MET46   THR47   GLY48   THR49   ASP50   GLU51   HIS52  
 GLY53   GLN54   LYS55   VAL56   ALA57   GLU58   THR71   PHE78   ILE93   THR95  
 THR96   HIS100  GLU101  VAL104  TRP108  TYR126  VAL128  SER129  ASP130  GLU131 
 SER132  LEU210  SER211  ILE212  SER213  ARG214  LYS215  ARG216  SER218  VAL219 
 MET220  ASN221  TRP222  SER223  ILE224  PRO225  VAL226  HIS232  CYS233  ILE234 
 TYR235  VAL236  TRP237  LEU238  ASP239  ALA240  LEU241  PHE242  ASN243  TYR244 
 TYR245  THR246  HIS275  VAL276  VAL277  GLY278  LYS279  ASP280  ILE281  LEU282 
 LYS283  PHE284  HIS285  ALA286  ILE287  TYR288  TRP289  PRO290  PHE292  LEU304 
 TRP309 

> <Gold.Protein.RotatedAtoms>
  -32.5318   -8.4595   -5.9849 H   0  0  0  0  0  0  0  0  0  0  0  0  # atno 4356 bound_to 100 
  -30.4228   -8.4090   -9.4539 H   0  0  0  0  0  0  0  0  0  0  0  0  # atno 4452 bound_to 380 
  -45.6783  -10.2446  -16.4062 H   0  0  0  0  0  0  0  0  0  0  0  0  # atno 4464 bound_to 112 
  -33.9248   -9.8075  -16.5325 H   0  0  0  0  0  0  0  0  0  0  0  0  # atno 4500 bound_to 391 
  -31.7772  -15.6505   -3.8010 H   0  0  0  0  0  0  0  0  0  0  0  0  # atno 4818 bound_to 65  
  -48.9156  -10.9827  -14.5470 H   0  0  0  0  0  0  0  0  0  0  0  0  # atno 4839 bound_to 441 
  -47.7915  -11.5762  -13.4834 H   0  0  0  0  0  0  0  0  0  0  0  0  # atno 4840 bound_to 441 
  -49.2688  -11.0679  -12.9299 H   0  0  0  0  0  0  0  0  0  0  0  0  # atno 4841 bound_to 441 
  -37.6143  -18.0301  -15.6839 H   0  0  0  0  0  0  0  0  0  0  0  0  # atno 4985 bound_to 758 
  -54.6426  -16.1370  -14.0278 H   0  0  0  0  0  0  0  0  0  0  0  0  # atno 5271 bound_to 1023
  -53.8496  -16.1112   -7.5325 H   0  0  0  0  0  0  0  0  0  0  0  0  # atno 5330 bound_to 1065
  -54.9960  -17.3197  -17.6672 H   0  0  0  0  0  0  0  0  0  0  0  0  # atno 6036 bound_to 1776
  -46.1985  -18.1144  -18.5252 H   0  0  0  0  0  0  0  0  0  0  0  0  # atno 6078 bound_to 1819
  -50.2466  -15.3611  -12.2707 H   0  0  0  0  0  0  0  0  0  0  0  0  # atno 6166 bound_to 1916
  -34.7170  -15.0187   -5.5488 H   0  0  0  0  0  0  0  0  0  0  0  0  # atno 6268 bound_to 1997
  -49.4992  -21.4560   -1.7699 H   0  0  0  0  0  0  0  0  0  0  0  0  # atno 6640 bound_to 2347
  -35.5656   -7.6139   -2.3568 H   0  0  0  0  0  0  0  0  0  0  0  0  # atno 8510 bound_to 202 
  -32.3309   -8.7546   -5.1584 H   0  0  0  0  0  0  0  0  0  0  0  0  # atno 8592 bound_to 72  
  -45.9915  -11.4629  -15.3739 LP  0  0  0  0  0  0  0  0  0  0  0  0  # atno 8618 bound_to 112 
  -44.7361  -11.5713  -16.4125 LP  0  0  0  0  0  0  0  0  0  0  0  0  # atno 8619 bound_to 112 
  -37.4728  -17.9211  -17.3014 LP  0  0  0  0  0  0  0  0  0  0  0  0  # atno 8637 bound_to 758 
  -38.7374  -17.2221  -16.5407 LP  0  0  0  0  0  0  0  0  0  0  0  0  # atno 8638 bound_to 758 
  -54.6104  -17.1662  -15.2879 LP  0  0  0  0  0  0  0  0  0  0  0  0  # atno 8642 bound_to 1023
  -54.2154  -17.6894  -13.7923 LP  0  0  0  0  0  0  0  0  0  0  0  0  # atno 8643 bound_to 1023
  -54.3695  -16.1051  -18.5506 LP  0  0  0  0  0  0  0  0  0  0  0  0  # atno 8662 bound_to 1776
  -53.3862  -17.0823  -17.6877 LP  0  0  0  0  0  0  0  0  0  0  0  0  # atno 8663 bound_to 1776
  -45.9241  -17.1813  -19.8298 LP  0  0  0  0  0  0  0  0  0  0  0  0  # atno 8672 bound_to 1819
  -44.7644  -17.3644  -18.6948 LP  0  0  0  0  0  0  0  0  0  0  0  0  # atno 8673 bound_to 1819
  -48.8649  -15.0983  -11.4523 LP  0  0  0  0  0  0  0  0  0  0  0  0  # atno 8684 bound_to 1916
  -50.1411  -15.7903  -10.7046 LP  0  0  0  0  0  0  0  0  0  0  0  0  # atno 8685 bound_to 1916
  -30.6727  -15.3912   -2.6344 LP  0  0  0  0  0  0  0  0  0  0  0  0  # atno 8712 bound_to 65  
  -30.8221  -16.8718   -3.3068 LP  0  0  0  0  0  0  0  0  0  0  0  0  # atno 8713 bound_to 65  
  -34.6256  -15.4890   -3.9936 LP  0  0  0  0  0  0  0  0  0  0  0  0  # atno 8724 bound_to 1997
  -35.8759  -15.9755   -4.9247 LP  0  0  0  0  0  0  0  0  0  0  0  0  # atno 8725 bound_to 1997
  -31.4517   -8.7314   -3.7893 LP  0  0  0  0  0  0  0  0  0  0  0  0  # atno 8747 bound_to 72  
  -32.7364   -9.7307   -3.9212 LP  0  0  0  0  0  0  0  0  0  0  0  0  # atno 8748 bound_to 72  
  -33.2835   -7.2049   -5.2715 LP  0  0  0  0  0  0  0  0  0  0  0  0  # atno 8749 bound_to 100 
  -32.0848   -6.9375   -6.3476 LP  0  0  0  0  0  0  0  0  0  0  0  0  # atno 8750 bound_to 100 
  -35.3727   -6.0037   -2.4908 LP  0  0  0  0  0  0  0  0  0  0  0  0  # atno 8754 bound_to 202 
  -34.9365   -6.7697   -1.1161 LP  0  0  0  0  0  0  0  0  0  0  0  0  # atno 8755 bound_to 202 
  -54.6439  -14.8296   -6.9203 LP  0  0  0  0  0  0  0  0  0  0  0  0  # atno 8775 bound_to 1065
  -54.2655  -14.8770   -8.5081 LP  0  0  0  0  0  0  0  0  0  0  0  0  # atno 8776 bound_to 1065
  -49.2841  -20.2717   -2.8650 LP  0  0  0  0  0  0  0  0  0  0  0  0  # atno 8779 bound_to 2347
  -48.9082  -20.0156   -1.2966 LP  0  0  0  0  0  0  0  0  0  0  0  0  # atno 8780 bound_to 2347
  -30.6334   -8.8634   -7.9057 LP  0  0  0  0  0  0  0  0  0  0  0  0  # atno 8787 bound_to 380 
  -31.2474   -9.7707   -9.1167 LP  0  0  0  0  0  0  0  0  0  0  0  0  # atno 8788 bound_to 380 

$$$$
