unknown|11k_best|sdf|8257|dock3
  -GOLD-   3 721 0143D 1   1.00000     0.00000

 30 32  0  0  0  0  0  0  0  0  1 V2000
  -43.4179  -18.4146  -16.1249 C   0  0  0  0  0  0  0  0  0  0  0  0
  -43.7272  -18.3236  -16.1097 O   0  0  0  0  0  0  0  0  0  0  0  0
  -44.5994  -17.3353  -15.7376 C   0  0  0  0  0  0  0  0  0  0  0  0
  -44.1207  -16.2191  -15.1167 C   0  0  0  0  0  0  0  0  0  0  0  0
  -44.9891  -15.2477  -14.6430 C   0  0  0  0  0  0  0  0  0  0  0  0
  -46.3517  -15.4876  -14.6494 C   0  0  0  0  0  0  0  0  0  0  0  0
  -47.2818  -14.3515  -14.6614 C   0  0  0  0  0  0  0  0  0  0  0  0
  -48.0399  -14.1656  -15.6471 O   0  0  0  0  0  0  0  0  0  0  0  0
  -47.4919  -13.5021  -13.5361 N   0  0  0  0  0  0  0  0  0  0  0  0
  -46.4598  -13.7347  -12.3592 C   0  0  1  0  0  0  0  0  0  0  0  0
  -45.7782  -12.2474  -12.5672 C   0  0  0  0  0  0  0  0  0  0  0  0
  -44.9232  -12.0387  -11.3523 C   0  0  0  0  0  0  0  0  0  0  0  0
  -43.6743  -12.8633  -11.3668 C   0  0  0  0  0  0  0  0  0  0  0  0
  -44.5722  -10.5909  -11.2293 C   0  0  0  0  0  0  0  0  0  0  0  0
  -47.4191  -13.2073  -11.1685 C   0  0  0  0  0  0  0  0  0  0  0  0
  -48.5466  -12.8240  -11.4717 O   0  0  0  0  0  0  0  0  0  0  0  0
  -47.2755  -14.1577  -10.0971 N   0  0  0  0  0  0  0  0  0  0  0  0
  -48.1489  -14.1875   -9.1331 C   0  0  0  0  0  0  0  0  0  0  0  0
  -47.8323  -13.5663   -7.9701 N   0  0  0  0  0  0  0  0  0  0  0  0
  -48.7017  -13.9550   -7.0397 C   0  0  0  0  0  0  0  0  0  0  0  0
  -48.9673  -13.5485   -5.7385 C   0  0  0  0  0  0  0  0  0  0  0  0
  -49.2797  -14.5297   -4.8075 C   0  0  0  0  0  0  0  0  0  0  0  0
  -49.9618  -15.6294   -5.3142 C   0  0  0  0  0  0  0  0  0  0  0  0
  -49.9452  -15.9413   -6.6679 C   0  0  0  0  0  0  0  0  0  0  0  0
  -49.2871  -15.0973   -7.5268 C   0  0  0  0  0  0  0  0  0  0  0  0
  -48.8399  -15.2850   -8.7674 N   0  0  0  0  0  0  0  0  0  0  0  0
  -46.7720  -16.7248  -15.1083 C   0  0  0  0  0  0  0  0  0  0  0  0
  -45.9371  -17.5929  -15.8010 C   0  0  0  0  0  0  0  0  0  0  0  0
  -46.4326  -18.4402  -16.7987 O   0  0  0  0  0  0  0  0  0  0  0  0
  -47.8229  -18.4908  -17.0122 C   0  0  0  0  0  0  0  0  0  0  0  0
  1  2  1  0  0  0  0
  2  3  1  0  0  0  0
  3  4  2  0  0  0  0
  4  5  1  0  0  0  0
  5  6  2  0  0  0  0
  6  7  1  0  0  0  0
  7  8  2  0  0  0  0
  7  9  1  0  0  0  0
 10  9  1  0  0  0  0
 10 11  1  0  0  0  0
 11 12  1  0  0  0  0
 12 13  1  0  0  0  0
 12 14  1  0  0  0  0
 10 15  1  0  0  0  0
 15 16  2  0  0  0  0
 15 17  1  0  0  0  0
 17 18  2  0  0  0  0
 18 19  1  0  0  0  0
 19 20  1  0  0  0  0
 20 21  2  0  0  0  0
 21 22  1  0  0  0  0
 22 23  2  0  0  0  0
 23 24  1  0  0  0  0
 24 25  2  0  0  0  0
 25 26  1  0  0  0  0
  6 27  1  0  0  0  0
 27 28  2  0  0  0  0
 28 29  1  0  0  0  0
 29 30  1  0  0  0  0
 28  3  1  0  0  0  0
 26 18  1  0  0  0  0
 25 20  1  0  0  0  0
M  END
>  <zinc_id>  (257) 
ZINC000096332441

>  <smiles>  (257) 
COc1ccc(C(=O)N[C@@H](CC(C)C)C(=O)N=c2[nH]c3ccccc3[nH]2)cc1OC

>  <source_line>  (257) 
257

>  <source_data>  (257) 
ZINC000096332441

>  <source_name>  (257) 


>  <source_label>  (257) 
ZINC000096332441

>  <found_by>  (257) 
ZINC

> <Gold.Version>
5.8.1

> <Gold.Id.Protein>
ID|ID_protein|mol2

> <Gold.Goldscore.Fitness>
66.1831

> <Gold.Goldscore.Internal.Vdw>
-2.5386

> <Gold.Goldscore.Internal.Torsion>
-9.2703

> <Gold.Goldscore.External.Vdw>
45.8872

> <Gold.Goldscore.Internal.HBond>
0.0000

> <Gold.Goldscore.External.HBond>
6.9480

> <Gold.Goldscore.Internal.Correction>
-7.9491

> <Gold.Goldscore.Hbonds>
donor molecule, donor type, donor heavy atom, donor atom, acceptor molecule, acceptor atom, score
      P1  H   112  4464       L1     9  0.02
      P1  H   426  4822       L1     8  0.03
      P1  H   441  4839       L1     9  0.10
      P1  H   441  4840       L1    16  0.02
      P1  H  1819  6078       L1    29  1.00
      P1  H  1916  6166       L1    26  0.62

> <Gold.Goldscore.Internal.Vdw.Weighted>
-2.5386

> <Gold.Goldscore.Internal.Torsion.Weighted>
-9.2703

> <Gold.Goldscore.External.Vdw.Weighted>
63.0949

> <Gold.Goldscore.Internal.HBond.Weighted>
0.0000

> <Gold.Goldscore.External.HBond.Weighted>
6.9480

> <Gold.Goldscore.Internal.Correction.Weighted>
-7.9491

> <Gold.Protein.RotatedTorsions>
[ 4464  112  111  109 ] final   79.67 input   60.00 | X-H torsion
[ 4839  441  440  439 ] final  148.31 input   60.00 | X-H torsion
[ 4985  758  757  756 ] final  153.17 input   60.00 | X-H torsion
[ 5271 1023 1022 1020 ] final  -95.22 input   60.00 | X-H torsion
[ 6036 1776 1775 1774 ] final  -36.99 input   60.00 | X-H torsion
[ 6078 1819 1818 1817 ] final -146.32 input   60.00 | X-H torsion
[ 6166 1916 1915 1913 ] final -157.75 input   60.00 | X-H torsion
[ 4818   65   64   63 ] final   35.70 input   60.00 | X-H torsion
[ 6268 1997 1996 1994 ] final   74.99 input   60.00 | X-H torsion
[ 8592   72   71   70 ] final  171.12 input   60.00 | X-H torsion
[ 4356  100   99   97 ] final  177.70 input   60.00 | X-H torsion
[ 8510  202  201  200 ] final  -61.76 input   60.00 | X-H torsion
[ 5330 1065 1064 1063 ] final -104.93 input   60.00 | X-H torsion
[ 6640 2347 2346 2344 ] final -136.70 input   60.00 | X-H torsion
[ 4452  380  379  378 ] final  136.55 input   60.00 | X-H torsion
[ 4500  391  390  389 ] final -149.58 input   60.00 | X-H torsion

> <Gold.Protein.ActiveResidues>
 THR8    THR9    PRO10   ILE11   TYR12   TYR13   VAL14   ASN15   ALA16   HIS19  
 HIS22   SER25   VAL29   MET46   THR47   GLY48   THR49   ASP50   GLU51   HIS52  
 GLY53   GLN54   LYS55   VAL56   ALA57   GLU58   THR71   PHE78   ILE93   THR95  
 THR96   HIS100  GLU101  VAL104  TRP108  TYR126  VAL128  SER129  ASP130  GLU131 
 SER132  LEU210  SER211  ILE212  SER213  ARG214  LYS215  ARG216  SER218  VAL219 
 MET220  ASN221  TRP222  SER223  ILE224  PRO225  VAL226  HIS232  CYS233  ILE234 
 TYR235  VAL236  TRP237  LEU238  ASP239  ALA240  LEU241  PHE242  ASN243  TYR244 
 TYR245  THR246  HIS275  VAL276  VAL277  GLY278  LYS279  ASP280  ILE281  LEU282 
 LYS283  PHE284  HIS285  ALA286  ILE287  TYR288  TRP289  PRO290  PHE292  LEU304 
 TRP309 

> <Gold.Protein.RotatedAtoms>
  -31.9398   -7.5534   -6.4971 H   0  0  0  0  0  0  0  0  0  0  0  0  # atno 4356 bound_to 100 
  -30.4209   -8.5062   -8.1199 H   0  0  0  0  0  0  0  0  0  0  0  0  # atno 4452 bound_to 380 
  -45.9023  -11.5663  -15.3847 H   0  0  0  0  0  0  0  0  0  0  0  0  # atno 4464 bound_to 112 
  -34.1938   -9.7092  -16.7113 H   0  0  0  0  0  0  0  0  0  0  0  0  # atno 4500 bound_to 391 
  -31.1393  -15.0755   -2.9776 H   0  0  0  0  0  0  0  0  0  0  0  0  # atno 4818 bound_to 65  
  -47.7755  -11.5350  -13.8255 H   0  0  0  0  0  0  0  0  0  0  0  0  # atno 4839 bound_to 441 
  -48.9990  -11.1985  -12.7591 H   0  0  0  0  0  0  0  0  0  0  0  0  # atno 4840 bound_to 441 
  -49.2013  -10.8934  -14.3757 H   0  0  0  0  0  0  0  0  0  0  0  0  # atno 4841 bound_to 441 
  -38.3789  -17.5487  -15.6984 H   0  0  0  0  0  0  0  0  0  0  0  0  # atno 4985 bound_to 758 
  -54.5803  -16.2411  -13.8216 H   0  0  0  0  0  0  0  0  0  0  0  0  # atno 5271 bound_to 1023
  -54.0366  -15.9570   -7.0498 H   0  0  0  0  0  0  0  0  0  0  0  0  # atno 5330 bound_to 1065
  -53.6254  -16.2606  -18.3571 H   0  0  0  0  0  0  0  0  0  0  0  0  # atno 6036 bound_to 1776
  -45.8021  -18.0947  -18.2702 H   0  0  0  0  0  0  0  0  0  0  0  0  # atno 6078 bound_to 1819
  -49.2840  -15.4893  -10.6702 H   0  0  0  0  0  0  0  0  0  0  0  0  # atno 6166 bound_to 1916
  -35.0613  -15.1858   -5.7083 H   0  0  0  0  0  0  0  0  0  0  0  0  # atno 6268 bound_to 1997
  -49.1601  -20.0064   -2.7107 H   0  0  0  0  0  0  0  0  0  0  0  0  # atno 6640 bound_to 2347
  -35.0086   -7.1326   -1.1618 H   0  0  0  0  0  0  0  0  0  0  0  0  # atno 8510 bound_to 202 
  -31.6384   -8.4187   -4.6967 H   0  0  0  0  0  0  0  0  0  0  0  0  # atno 8592 bound_to 72  
  -44.7178  -11.4636  -16.4958 LP  0  0  0  0  0  0  0  0  0  0  0  0  # atno 8618 bound_to 112 
  -45.7843  -10.2395  -16.3194 LP  0  0  0  0  0  0  0  0  0  0  0  0  # atno 8619 bound_to 112 
  -37.1423  -18.2265  -16.5105 LP  0  0  0  0  0  0  0  0  0  0  0  0  # atno 8637 bound_to 758 
  -38.2980  -17.4016  -17.3170 LP  0  0  0  0  0  0  0  0  0  0  0  0  # atno 8638 bound_to 758 
  -54.6687  -16.9325  -15.2921 LP  0  0  0  0  0  0  0  0  0  0  0  0  # atno 8642 bound_to 1023
  -54.2198  -17.8183  -13.9958 LP  0  0  0  0  0  0  0  0  0  0  0  0  # atno 8643 bound_to 1023
  -53.9648  -17.5295  -17.3964 LP  0  0  0  0  0  0  0  0  0  0  0  0  # atno 8662 bound_to 1776
  -55.1710  -16.7244  -18.1471 LP  0  0  0  0  0  0  0  0  0  0  0  0  # atno 8663 bound_to 1776
  -46.2919  -17.4404  -19.6773 LP  0  0  0  0  0  0  0  0  0  0  0  0  # atno 8672 bound_to 1819
  -44.7957  -17.1252  -19.1041 LP  0  0  0  0  0  0  0  0  0  0  0  0  # atno 8673 bound_to 1819
  -50.6415  -15.7237  -11.5365 LP  0  0  0  0  0  0  0  0  0  0  0  0  # atno 8684 bound_to 1916
  -49.3341  -15.0358  -12.2322 LP  0  0  0  0  0  0  0  0  0  0  0  0  # atno 8685 bound_to 1916
  -30.4672  -16.5520   -2.8487 LP  0  0  0  0  0  0  0  0  0  0  0  0  # atno 8712 bound_to 65  
  -31.6700  -16.2901   -3.9217 LP  0  0  0  0  0  0  0  0  0  0  0  0  # atno 8713 bound_to 65  
  -34.3802  -15.2495   -4.2318 LP  0  0  0  0  0  0  0  0  0  0  0  0  # atno 8724 bound_to 1997
  -35.7746  -16.0467   -4.5259 LP  0  0  0  0  0  0  0  0  0  0  0  0  # atno 8725 bound_to 1997
  -31.9794   -9.3635   -3.4165 LP  0  0  0  0  0  0  0  0  0  0  0  0  # atno 8747 bound_to 72  
  -32.9062   -9.4369   -4.7589 LP  0  0  0  0  0  0  0  0  0  0  0  0  # atno 8748 bound_to 72  
  -33.0035   -8.3437   -5.5527 LP  0  0  0  0  0  0  0  0  0  0  0  0  # atno 8749 bound_to 100 
  -32.9609   -6.7112   -5.5505 LP  0  0  0  0  0  0  0  0  0  0  0  0  # atno 8750 bound_to 100 
  -35.6459   -7.3826   -2.6381 LP  0  0  0  0  0  0  0  0  0  0  0  0  # atno 8754 bound_to 202 
  -35.2242   -5.8754   -2.1722 LP  0  0  0  0  0  0  0  0  0  0  0  0  # atno 8755 bound_to 202 
  -54.7127  -14.5084   -7.3539 LP  0  0  0  0  0  0  0  0  0  0  0  0  # atno 8775 bound_to 1065
  -54.0082  -15.3534   -8.5607 LP  0  0  0  0  0  0  0  0  0  0  0  0  # atno 8776 bound_to 1065
  -48.9722  -20.2889   -1.1192 LP  0  0  0  0  0  0  0  0  0  0  0  0  # atno 8779 bound_to 2347
  -49.5617  -21.4582   -2.0949 LP  0  0  0  0  0  0  0  0  0  0  0  0  # atno 8780 bound_to 2347
  -31.2467   -9.8049   -8.6487 LP  0  0  0  0  0  0  0  0  0  0  0  0  # atno 8787 bound_to 380 
  -30.6361   -8.7314   -9.7171 LP  0  0  0  0  0  0  0  0  0  0  0  0  # atno 8788 bound_to 380 

$$$$
