unknown|11k_best|sdf|8338|dock4
  -GOLD-   3 721 1563D 1   1.00000     0.00000

 28 30  0  0  0  0  0  0  0  0  1 V2000
  -38.7672  -16.6469  -13.7682 C   0  0  0  0  0  0  0  0  0  0  0  0
  -39.7661  -16.2904  -13.6262 C   0  0  0  0  0  0  0  0  0  0  0  0
  -40.6588  -16.9060  -14.5513 O   0  0  0  0  0  0  0  0  0  0  0  0
  -42.0285  -16.7262  -14.3632 C   0  0  0  0  0  0  0  0  0  0  0  0
  -42.9776  -17.3149  -15.1829 C   0  0  0  0  0  0  0  0  0  0  0  0
  -44.2102  -16.7150  -15.4080 C   0  0  0  0  0  0  0  0  0  0  0  0
  -44.5936  -15.6850  -14.5771 C   0  0  0  0  0  0  0  0  0  0  0  0
  -45.9509  -15.1400  -14.6509 C   0  0  0  0  0  0  0  0  0  0  0  0
  -46.9386  -15.4440  -15.5189 N   0  0  0  0  0  0  0  0  0  0  0  0
  -48.0300  -14.8475  -15.1445 O   0  0  0  0  0  0  0  0  0  0  0  0
  -47.7942  -14.1794  -14.0614 N   0  0  0  0  0  0  0  0  0  0  0  0
  -46.5139  -14.3513  -13.6599 C   0  0  0  0  0  0  0  0  0  0  0  0
  -45.9605  -13.9781  -12.3960 N   0  0  0  0  0  0  0  0  0  0  0  0
  -46.7967  -13.2861  -11.4881 C   0  0  0  0  0  0  0  0  0  0  0  0
  -47.8429  -12.7594  -11.9595 O   0  0  0  0  0  0  0  0  0  0  0  0
  -45.9474  -12.0574  -10.7804 C   0  0  2  0  0  0  0  0  0  0  0  0
  -45.4618  -11.4782  -12.2853 C   0  0  0  0  0  0  0  0  0  0  0  0
  -44.6619  -12.9599  -10.6756 O   0  0  0  0  0  0  0  0  0  0  0  0
  -43.5592  -12.2478  -10.2290 C   0  0  0  0  0  0  0  0  0  0  0  0
  -42.3319  -12.8855  -10.1004 C   0  0  0  0  0  0  0  0  0  0  0  0
  -41.3100  -12.2800   -9.3910 C   0  0  0  0  0  0  0  0  0  0  0  0
  -41.3490  -10.8974   -9.2741 C   0  0  0  0  0  0  0  0  0  0  0  0
  -40.1492  -10.1989   -8.7754 C   0  0  0  0  0  0  0  0  0  0  0  0
  -42.6033  -10.3373   -9.1244 C   0  0  0  0  0  0  0  0  0  0  0  0
  -42.7416   -8.9529   -8.6203 C   0  0  0  0  0  0  0  0  0  0  0  0
  -43.6082  -10.9004   -9.9010 C   0  0  0  0  0  0  0  0  0  0  0  0
  -43.6012  -14.9251  -13.9720 C   0  0  0  0  0  0  0  0  0  0  0  0
  -42.4466  -15.6187  -13.6406 C   0  0  0  0  0  0  0  0  0  0  0  0
  1  2  1  0  0  0  0
  2  3  1  0  0  0  0
  3  4  1  0  0  0  0
  4  5  2  0  0  0  0
  5  6  1  0  0  0  0
  6  7  2  0  0  0  0
  7  8  1  0  0  0  0
  8  9  2  0  0  0  0
  9 10  1  0  0  0  0
 10 11  1  0  0  0  0
 11 12  2  0  0  0  0
 12 13  1  0  0  0  0
 13 14  1  0  0  0  0
 14 15  2  0  0  0  0
 16 14  1  0  0  0  0
 16 17  1  0  0  0  0
 16 18  1  0  0  0  0
 18 19  1  0  0  0  0
 19 20  2  0  0  0  0
 20 21  1  0  0  0  0
 21 22  2  0  0  0  0
 22 23  1  0  0  0  0
 22 24  1  0  0  0  0
 24 25  1  0  0  0  0
 24 26  2  0  0  0  0
  7 27  1  0  0  0  0
 27 28  2  0  0  0  0
 28  4  1  0  0  0  0
 12  8  1  0  0  0  0
 26 19  1  0  0  0  0
M  END
>  <zinc_id>  (338) 
ZINC000008917206

>  <smiles>  (338) 
CCOc1ccc(-c2nonc2NC(=O)[C@H](C)Oc2ccc(C)c(C)c2)cc1

>  <source_line>  (338) 
338

>  <source_data>  (338) 
ZINC000008917206

>  <source_name>  (338) 


>  <source_label>  (338) 
ZINC000008917206

>  <found_by>  (338) 
ZINC

> <Gold.Version>
5.8.1

> <Gold.Id.Protein>
ID|ID_protein|mol2

> <Gold.Goldscore.Fitness>
65.3293

> <Gold.Goldscore.Internal.Vdw>
-1.5666

> <Gold.Goldscore.Internal.Torsion>
-9.7339

> <Gold.Goldscore.External.Vdw>
45.6655

> <Gold.Goldscore.Internal.HBond>
0.0000

> <Gold.Goldscore.External.HBond>
5.3715

> <Gold.Goldscore.Internal.Correction>
-8.4683

> <Gold.Goldscore.Hbonds>
donor molecule, donor type, donor heavy atom, donor atom, acceptor molecule, acceptor atom, score
      P1  H   414  4516       L1     3  0.26
      P1  H   441  4841       L1    15  0.76
      P1  H   758  4985       L1     3  0.15

> <Gold.Goldscore.Internal.Vdw.Weighted>
-1.5666

> <Gold.Goldscore.Internal.Torsion.Weighted>
-9.7339

> <Gold.Goldscore.External.Vdw.Weighted>
62.7900

> <Gold.Goldscore.Internal.HBond.Weighted>
0.0000

> <Gold.Goldscore.External.HBond.Weighted>
5.3715

> <Gold.Goldscore.Internal.Correction.Weighted>
-8.4683

> <Gold.Protein.RotatedTorsions>
[ 4464  112  111  109 ] final    8.25 input   60.00 | X-H torsion
[ 4839  441  440  439 ] final  -29.79 input   60.00 | X-H torsion
[ 4985  758  757  756 ] final  153.42 input   60.00 | X-H torsion
[ 5271 1023 1022 1020 ] final  119.29 input   60.00 | X-H torsion
[ 6036 1776 1775 1774 ] final  -85.35 input   60.00 | X-H torsion
[ 6078 1819 1818 1817 ] final  -97.59 input   60.00 | X-H torsion
[ 6166 1916 1915 1913 ] final -114.52 input   60.00 | X-H torsion
[ 4818   65   64   63 ] final -163.06 input   60.00 | X-H torsion
[ 6268 1997 1996 1994 ] final   57.58 input   60.00 | X-H torsion
[ 8592   72   71   70 ] final  -70.63 input   60.00 | X-H torsion
[ 4356  100   99   97 ] final  -92.19 input   60.00 | X-H torsion
[ 8510  202  201  200 ] final  -91.58 input   60.00 | X-H torsion
[ 5330 1065 1064 1063 ] final  161.55 input   60.00 | X-H torsion
[ 6640 2347 2346 2344 ] final  -31.02 input   60.00 | X-H torsion
[ 4452  380  379  378 ] final -134.68 input   60.00 | X-H torsion
[ 4500  391  390  389 ] final  -25.84 input   60.00 | X-H torsion

> <Gold.Protein.ActiveResidues>
 THR8    THR9    PRO10   ILE11   TYR12   TYR13   VAL14   ASN15   ALA16   HIS19  
 HIS22   SER25   VAL29   MET46   THR47   GLY48   THR49   ASP50   GLU51   HIS52  
 GLY53   GLN54   LYS55   VAL56   ALA57   GLU58   THR71   PHE78   ILE93   THR95  
 THR96   HIS100  GLU101  VAL104  TRP108  TYR126  VAL128  SER129  ASP130  GLU131 
 SER132  LEU210  SER211  ILE212  SER213  ARG214  LYS215  ARG216  SER218  VAL219 
 MET220  ASN221  TRP222  SER223  ILE224  PRO225  VAL226  HIS232  CYS233  ILE234 
 TYR235  VAL236  TRP237  LEU238  ASP239  ALA240  LEU241  PHE242  ASN243  TYR244 
 TYR245  THR246  HIS275  VAL276  VAL277  GLY278  LYS279  ASP280  ILE281  LEU282 
 LYS283  PHE284  HIS285  ALA286  ILE287  TYR288  TRP289  PRO290  PHE292  LEU304 
 TRP309 

> <Gold.Protein.RotatedAtoms>
  -32.6111   -6.6002   -5.8670 H   0  0  0  0  0  0  0  0  0  0  0  0  # atno 4356 bound_to 100 
  -30.4083   -8.3876   -9.4242 H   0  0  0  0  0  0  0  0  0  0  0  0  # atno 4452 bound_to 380 
  -45.0270  -11.9071  -15.9433 H   0  0  0  0  0  0  0  0  0  0  0  0  # atno 4464 bound_to 112 
  -33.9847  -11.1029  -15.8509 H   0  0  0  0  0  0  0  0  0  0  0  0  # atno 4500 bound_to 391 
  -31.2676  -16.7687   -3.7053 H   0  0  0  0  0  0  0  0  0  0  0  0  # atno 4818 bound_to 65  
  -49.5451  -10.8772  -13.5123 H   0  0  0  0  0  0  0  0  0  0  0  0  # atno 4839 bound_to 441 
  -48.2912  -11.2316  -14.5368 H   0  0  0  0  0  0  0  0  0  0  0  0  # atno 4840 bound_to 441 
  -48.1396  -11.5180  -12.9112 H   0  0  0  0  0  0  0  0  0  0  0  0  # atno 4841 bound_to 441 
  -38.3818  -17.5466  -15.7004 H   0  0  0  0  0  0  0  0  0  0  0  0  # atno 4985 bound_to 758 
  -54.5638  -17.3301  -15.2398 H   0  0  0  0  0  0  0  0  0  0  0  0  # atno 5271 bound_to 1023
  -54.6698  -14.7498   -7.0002 H   0  0  0  0  0  0  0  0  0  0  0  0  # atno 5330 bound_to 1065
  -53.3189  -16.7992  -17.9053 H   0  0  0  0  0  0  0  0  0  0  0  0  # atno 6036 bound_to 1776
  -45.0988  -17.7756  -18.2771 H   0  0  0  0  0  0  0  0  0  0  0  0  # atno 6078 bound_to 1819
  -48.8975  -15.1998  -11.1627 H   0  0  0  0  0  0  0  0  0  0  0  0  # atno 6166 bound_to 1916
  -34.8226  -15.0632   -5.6173 H   0  0  0  0  0  0  0  0  0  0  0  0  # atno 6268 bound_to 1997
  -49.5739  -21.3850   -2.3172 H   0  0  0  0  0  0  0  0  0  0  0  0  # atno 6640 bound_to 2347
  -35.1662   -7.5180   -1.4042 H   0  0  0  0  0  0  0  0  0  0  0  0  # atno 8510 bound_to 202 
  -32.8933   -9.4192   -4.7788 H   0  0  0  0  0  0  0  0  0  0  0  0  # atno 8592 bound_to 72  
  -45.1630  -10.4814  -16.7159 LP  0  0  0  0  0  0  0  0  0  0  0  0  # atno 8618 bound_to 112 
  -46.2205  -10.8784  -15.5366 LP  0  0  0  0  0  0  0  0  0  0  0  0  # atno 8619 bound_to 112 
  -37.1425  -18.2269  -16.5064 LP  0  0  0  0  0  0  0  0  0  0  0  0  # atno 8637 bound_to 758 
  -38.2948  -17.4033  -17.3191 LP  0  0  0  0  0  0  0  0  0  0  0  0  # atno 8638 bound_to 758 
  -54.2236  -17.5650  -13.6659 LP  0  0  0  0  0  0  0  0  0  0  0  0  # atno 8642 bound_to 1023
  -54.6815  -16.0891  -14.1938 LP  0  0  0  0  0  0  0  0  0  0  0  0  # atno 8643 bound_to 1023
  -54.7300  -17.4994  -17.4970 LP  0  0  0  0  0  0  0  0  0  0  0  0  # atno 8662 bound_to 1776
  -54.7145  -16.2121  -18.5016 LP  0  0  0  0  0  0  0  0  0  0  0  0  # atno 8663 bound_to 1776
  -46.5044  -17.9006  -19.0873 LP  0  0  0  0  0  0  0  0  0  0  0  0  # atno 8672 bound_to 1819
  -45.2915  -16.9864  -19.6871 LP  0  0  0  0  0  0  0  0  0  0  0  0  # atno 8673 bound_to 1819
  -50.3794  -15.8188  -10.9003 LP  0  0  0  0  0  0  0  0  0  0  0  0  # atno 8684 bound_to 1916
  -49.9853  -15.2323  -12.3725 LP  0  0  0  0  0  0  0  0  0  0  0  0  # atno 8685 bound_to 1916
  -31.5869  -15.1936   -3.4504 LP  0  0  0  0  0  0  0  0  0  0  0  0  # atno 8712 bound_to 65  
  -30.4211  -15.9433   -2.5871 LP  0  0  0  0  0  0  0  0  0  0  0  0  # atno 8713 bound_to 65  
  -34.5349  -15.4101   -4.0537 LP  0  0  0  0  0  0  0  0  0  0  0  0  # atno 8724 bound_to 1997
  -35.8603  -16.0096   -4.7956 LP  0  0  0  0  0  0  0  0  0  0  0  0  # atno 8725 bound_to 1997
  -31.6200   -8.4114   -4.6749 LP  0  0  0  0  0  0  0  0  0  0  0  0  # atno 8747 bound_to 72  
  -32.0018   -9.3814   -3.4180 LP  0  0  0  0  0  0  0  0  0  0  0  0  # atno 8748 bound_to 72  
  -32.0386   -8.0209   -6.4163 LP  0  0  0  0  0  0  0  0  0  0  0  0  # atno 8749 bound_to 100 
  -33.2498   -7.9939   -5.3215 LP  0  0  0  0  0  0  0  0  0  0  0  0  # atno 8750 bound_to 100 
  -35.6610   -6.9436   -2.8441 LP  0  0  0  0  0  0  0  0  0  0  0  0  # atno 8754 bound_to 202 
  -35.0504   -5.9263   -1.7221 LP  0  0  0  0  0  0  0  0  0  0  0  0  # atno 8755 bound_to 202 
  -54.2087  -14.9712   -8.5450 LP  0  0  0  0  0  0  0  0  0  0  0  0  # atno 8775 bound_to 1065
  -53.8746  -16.1063   -7.4195 LP  0  0  0  0  0  0  0  0  0  0  0  0  # atno 8776 bound_to 1065
  -49.0798  -19.8527   -2.5532 LP  0  0  0  0  0  0  0  0  0  0  0  0  # atno 8779 bound_to 2347
  -49.0373  -20.5060   -1.0572 LP  0  0  0  0  0  0  0  0  0  0  0  0  # atno 8780 bound_to 2347
  -30.6536   -8.8968   -7.8982 LP  0  0  0  0  0  0  0  0  0  0  0  0  # atno 8787 bound_to 380 
  -31.2418   -9.7589   -9.1542 LP  0  0  0  0  0  0  0  0  0  0  0  0  # atno 8788 bound_to 380 

$$$$
