unknown|11k_best|sdf|8301|dock2
  -GOLD-   3 721 1113D 1   1.00000     0.00000

 29 31  0  0  0  0  0  0  0  0  1 V2000
  -51.5452  -17.4038  -17.5113 C   0  0  0  0  0  0  0  0  0  0  0  0
  -50.3317  -16.9141  -16.8225 C   0  0  0  0  0  0  0  0  0  0  0  0
  -50.1721  -15.5526  -16.6363 C   0  0  0  0  0  0  0  0  0  0  0  0
  -48.9479  -15.0750  -16.2043 C   0  0  0  0  0  0  0  0  0  0  0  0
  -47.8560  -15.8996  -16.0016 C   0  0  0  0  0  0  0  0  0  0  0  0
  -46.6722  -15.5281  -14.7030 S   0  0  0  0  0  0  0  0  0  0  0  0
  -47.0855  -13.8640  -14.0895 C   0  0  0  0  0  0  0  0  0  0  0  0
  -45.9219  -13.2780  -13.3140 C   0  0  0  0  0  0  0  0  0  0  0  0
  -46.4711  -12.5441  -12.1789 N   0  0  0  0  0  0  0  0  0  0  0  0
  -45.8999  -13.2889  -10.7461 S   0  0  0  0  0  0  0  0  0  0  0  0
  -45.8322  -14.7714  -10.8781 O   0  0  0  0  0  0  0  0  0  0  0  0
  -46.8784  -12.9564   -9.6501 O   0  0  0  0  0  0  0  0  0  0  0  0
  -44.3653  -12.5924  -10.3079 C   0  0  0  0  0  0  0  0  0  0  0  0
  -43.5192  -11.8305  -11.0462 N   0  0  0  0  0  0  0  0  0  0  0  0
  -42.8202  -11.0147  -10.2894 N   0  0  0  0  0  0  0  0  0  0  0  0
  -42.1445  -11.6867   -9.3237 C   0  0  0  0  0  0  0  0  0  0  0  0
  -41.1572  -11.1738   -8.4180 N   0  0  0  0  0  0  0  0  0  0  0  0
  -40.9319   -9.7631   -8.3553 C   0  0  0  0  0  0  0  0  0  0  0  0
  -41.5911   -9.0483   -9.1698 O   0  0  0  0  0  0  0  0  0  0  0  0
  -39.7258   -9.2135   -7.7226 C   0  0  0  0  0  0  0  0  0  0  0  0
  -39.5512   -7.8436   -7.5719 C   0  0  0  0  0  0  0  0  0  0  0  0
  -39.0218   -7.2965   -6.4093 C   0  0  0  0  0  0  0  0  0  0  0  0
  -38.6575   -8.1194   -5.3506 C   0  0  0  0  0  0  0  0  0  0  0  0
  -38.9344   -7.7123   -3.9381 C   0  0  0  0  0  0  0  0  0  0  0  0
  -38.3930   -9.4366   -5.7037 C   0  0  0  0  0  0  0  0  0  0  0  0
  -39.0149   -9.9883   -6.8175 C   0  0  0  0  0  0  0  0  0  0  0  0
  -43.3422  -12.8659   -8.9528 S   0  0  0  0  0  0  0  0  0  0  0  0
  -47.9445  -17.1797  -16.5336 C   0  0  0  0  0  0  0  0  0  0  0  0
  -49.1668  -17.6543  -16.9891 C   0  0  0  0  0  0  0  0  0  0  0  0
  1  2  1  0  0  0  0
  2  3  2  0  0  0  0
  3  4  1  0  0  0  0
  4  5  2  0  0  0  0
  5  6  1  0  0  0  0
  6  7  1  0  0  0  0
  7  8  1  0  0  0  0
  8  9  1  0  0  0  0
  9 10  1  0  0  0  0
 10 11  2  0  0  0  0
 10 12  2  0  0  0  0
 10 13  1  0  0  0  0
 13 14  2  0  0  0  0
 14 15  1  0  0  0  0
 15 16  2  0  0  0  0
 16 17  1  0  0  0  0
 17 18  1  0  0  0  0
 18 19  2  0  0  0  0
 18 20  1  0  0  0  0
 20 21  2  0  0  0  0
 21 22  1  0  0  0  0
 22 23  2  0  0  0  0
 23 24  1  0  0  0  0
 23 25  1  0  0  0  0
 25 26  2  0  0  0  0
 16 27  1  0  0  0  0
  5 28  1  0  0  0  0
 28 29  2  0  0  0  0
 29  2  1  0  0  0  0
 27 13  1  0  0  0  0
 26 20  1  0  0  0  0
M  END
>  <zinc_id>  (301) 
ZINC000224905890

>  <smiles>  (301) 
Cc1ccc(SCCNS(=O)(=O)c2nnc(NC(=O)c3ccc(C)cc3)s2)cc1

>  <source_line>  (301) 
301

>  <source_data>  (301) 
ZINC000224905890

>  <source_name>  (301) 


>  <source_label>  (301) 
ZINC000224905890

>  <found_by>  (301) 
ZINC

> <Gold.Version>
5.8.1

> <Gold.Id.Protein>
ID|ID_protein|mol2

> <Gold.Goldscore.Fitness>
64.1629

> <Gold.Goldscore.Internal.Vdw>
2.0229

> <Gold.Goldscore.Internal.Torsion>
-11.4273

> <Gold.Goldscore.External.Vdw>
45.1364

> <Gold.Goldscore.Internal.HBond>
0.0000

> <Gold.Goldscore.External.HBond>
9.9567

> <Gold.Goldscore.Internal.Correction>
-1.5481

> <Gold.Goldscore.Hbonds>
donor molecule, donor type, donor heavy atom, donor atom, acceptor molecule, acceptor atom, score
      P1  H   441  4840       L1     9  1.00

> <Gold.Goldscore.Internal.Vdw.Weighted>
2.0229

> <Gold.Goldscore.Internal.Torsion.Weighted>
-11.4273

> <Gold.Goldscore.External.Vdw.Weighted>
62.0626

> <Gold.Goldscore.Internal.HBond.Weighted>
0.0000

> <Gold.Goldscore.External.HBond.Weighted>
9.9567

> <Gold.Goldscore.Internal.Correction.Weighted>
-1.5481

> <Gold.Protein.RotatedTorsions>
[ 4464  112  111  109 ] final  -27.81 input   60.00 | X-H torsion
[ 4839  441  440  439 ] final   65.23 input   60.00 | X-H torsion
[ 4985  758  757  756 ] final -144.83 input   60.00 | X-H torsion
[ 5271 1023 1022 1020 ] final  114.99 input   60.00 | X-H torsion
[ 6036 1776 1775 1774 ] final  116.34 input   60.00 | X-H torsion
[ 6078 1819 1818 1817 ] final  126.86 input   60.00 | X-H torsion
[ 6166 1916 1915 1913 ] final -134.88 input   60.00 | X-H torsion
[ 4818   65   64   63 ] final   90.81 input   60.00 | X-H torsion
[ 6268 1997 1996 1994 ] final -122.82 input   60.00 | X-H torsion
[ 8592   72   71   70 ] final   -5.79 input   60.00 | X-H torsion
[ 4356  100   99   97 ] final   55.13 input   60.00 | X-H torsion
[ 8510  202  201  200 ] final  133.47 input   60.00 | X-H torsion
[ 5330 1065 1064 1063 ] final   71.39 input   60.00 | X-H torsion
[ 6640 2347 2346 2344 ] final -140.01 input   60.00 | X-H torsion
[ 4452  380  379  378 ] final  102.08 input   60.00 | X-H torsion
[ 4500  391  390  389 ] final  -88.01 input   60.00 | X-H torsion

> <Gold.Protein.ActiveResidues>
 THR8    THR9    PRO10   ILE11   TYR12   TYR13   VAL14   ASN15   ALA16   HIS19  
 HIS22   SER25   VAL29   MET46   THR47   GLY48   THR49   ASP50   GLU51   HIS52  
 GLY53   GLN54   LYS55   VAL56   ALA57   GLU58   THR71   PHE78   ILE93   THR95  
 THR96   HIS100  GLU101  VAL104  TRP108  TYR126  VAL128  SER129  ASP130  GLU131 
 SER132  LEU210  SER211  ILE212  SER213  ARG214  LYS215  ARG216  SER218  VAL219 
 MET220  ASN221  TRP222  SER223  ILE224  PRO225  VAL226  HIS232  CYS233  ILE234 
 TYR235  VAL236  TRP237  LEU238  ASP239  ALA240  LEU241  PHE242  ASN243  TYR244 
 TYR245  THR246  HIS275  VAL276  VAL277  GLY278  LYS279  ASP280  ILE281  LEU282 
 LYS283  PHE284  HIS285  ALA286  ILE287  TYR288  TRP289  PRO290  PHE292  LEU304 
 TRP309 

> <Gold.Protein.RotatedAtoms>
  -33.0285   -8.3156   -5.5326 H   0  0  0  0  0  0  0  0  0  0  0  0  # atno 4356 bound_to 100 
  -30.6796   -8.9436   -7.8974 H   0  0  0  0  0  0  0  0  0  0  0  0  # atno 4452 bound_to 380 
  -44.7547  -11.6167  -16.3644 H   0  0  0  0  0  0  0  0  0  0  0  0  # atno 4464 bound_to 112 
  -33.6359  -10.2538  -16.1539 H   0  0  0  0  0  0  0  0  0  0  0  0  # atno 4500 bound_to 391 
  -31.6844  -15.3352   -3.5987 H   0  0  0  0  0  0  0  0  0  0  0  0  # atno 4818 bound_to 65  
  -48.6682  -11.0733  -14.6007 H   0  0  0  0  0  0  0  0  0  0  0  0  # atno 4839 bound_to 441 
  -47.8824  -11.5754  -13.2303 H   0  0  0  0  0  0  0  0  0  0  0  0  # atno 4840 bound_to 441 
  -49.4253  -10.9781  -13.1293 H   0  0  0  0  0  0  0  0  0  0  0  0  # atno 4841 bound_to 441 
  -38.7310  -17.2240  -16.5355 H   0  0  0  0  0  0  0  0  0  0  0  0  # atno 4985 bound_to 758 
  -54.5439  -17.3927  -15.2147 H   0  0  0  0  0  0  0  0  0  0  0  0  # atno 5271 bound_to 1023
  -54.4437  -14.6260   -8.3007 H   0  0  0  0  0  0  0  0  0  0  0  0  # atno 5330 bound_to 1065
  -55.1226  -17.1464  -17.8154 H   0  0  0  0  0  0  0  0  0  0  0  0  # atno 6036 bound_to 1776
  -46.4958  -17.7661  -19.3031 H   0  0  0  0  0  0  0  0  0  0  0  0  # atno 6078 bound_to 1819
  -49.0295  -15.3304  -10.8888 H   0  0  0  0  0  0  0  0  0  0  0  0  # atno 6166 bound_to 1916
  -35.3251  -15.9282   -4.0346 H   0  0  0  0  0  0  0  0  0  0  0  0  # atno 6268 bound_to 1997
  -49.1407  -19.9686   -2.6772 H   0  0  0  0  0  0  0  0  0  0  0  0  # atno 6640 bound_to 2347
  -35.6265   -6.7019   -2.8580 H   0  0  0  0  0  0  0  0  0  0  0  0  # atno 8510 bound_to 202 
  -32.6771   -9.7233   -3.8468 H   0  0  0  0  0  0  0  0  0  0  0  0  # atno 8592 bound_to 72  
  -45.6279  -10.2464  -16.4529 LP  0  0  0  0  0  0  0  0  0  0  0  0  # atno 8618 bound_to 112 
  -46.0298  -11.4060  -15.3756 LP  0  0  0  0  0  0  0  0  0  0  0  0  # atno 8619 bound_to 112 
  -37.6096  -18.0362  -15.6806 LP  0  0  0  0  0  0  0  0  0  0  0  0  # atno 8637 bound_to 758 
  -37.4761  -17.9188  -17.3039 LP  0  0  0  0  0  0  0  0  0  0  0  0  # atno 8638 bound_to 758 
  -54.2296  -17.5095  -13.6223 LP  0  0  0  0  0  0  0  0  0  0  0  0  # atno 8642 bound_to 1023
  -54.6957  -16.0815  -14.2628 LP  0  0  0  0  0  0  0  0  0  0  0  0  # atno 8643 bound_to 1023
  -54.1077  -16.0953  -18.5319 LP  0  0  0  0  0  0  0  0  0  0  0  0  # atno 8662 bound_to 1776
  -53.5204  -17.2666  -17.5572 LP  0  0  0  0  0  0  0  0  0  0  0  0  # atno 8663 bound_to 1776
  -45.0858  -16.9878  -19.5361 LP  0  0  0  0  0  0  0  0  0  0  0  0  # atno 8672 bound_to 1819
  -45.3032  -17.9087  -18.2052 LP  0  0  0  0  0  0  0  0  0  0  0  0  # atno 8673 bound_to 1819
  -50.5598  -15.8009  -11.1799 LP  0  0  0  0  0  0  0  0  0  0  0  0  # atno 8684 bound_to 1916
  -49.6721  -15.1187  -12.3687 LP  0  0  0  0  0  0  0  0  0  0  0  0  # atno 8685 bound_to 1916
  -30.4845  -15.7252   -2.5709 LP  0  0  0  0  0  0  0  0  0  0  0  0  # atno 8712 bound_to 65  
  -31.1038  -16.8552   -3.5740 LP  0  0  0  0  0  0  0  0  0  0  0  0  # atno 8713 bound_to 65  
  -35.6058  -15.5715   -5.5973 LP  0  0  0  0  0  0  0  0  0  0  0  0  # atno 8724 bound_to 1997
  -34.2834  -14.9771   -4.8459 LP  0  0  0  0  0  0  0  0  0  0  0  0  # atno 8725 bound_to 1997
  -32.4077   -8.8107   -5.1669 LP  0  0  0  0  0  0  0  0  0  0  0  0  # atno 8747 bound_to 72  
  -31.4319   -8.6758   -3.8645 LP  0  0  0  0  0  0  0  0  0  0  0  0  # atno 8748 bound_to 72  
  -32.9329   -6.6916   -5.5754 LP  0  0  0  0  0  0  0  0  0  0  0  0  # atno 8749 bound_to 100 
  -31.9351   -7.5958   -6.4992 LP  0  0  0  0  0  0  0  0  0  0  0  0  # atno 8750 bound_to 100 
  -34.9851   -6.0421   -1.5159 LP  0  0  0  0  0  0  0  0  0  0  0  0  # atno 8754 bound_to 202 
  -35.2627   -7.6497   -1.5863 LP  0  0  0  0  0  0  0  0  0  0  0  0  # atno 8755 bound_to 202 
  -53.7918  -16.0609   -7.8957 LP  0  0  0  0  0  0  0  0  0  0  0  0  # atno 8775 bound_to 1065
  -54.5192  -15.1414   -6.7590 LP  0  0  0  0  0  0  0  0  0  0  0  0  # atno 8776 bound_to 1065
  -48.9860  -20.3380   -1.0999 LP  0  0  0  0  0  0  0  0  0  0  0  0  # atno 8779 bound_to 2347
  -49.5674  -21.4471   -2.1480 LP  0  0  0  0  0  0  0  0  0  0  0  0  # atno 8780 bound_to 2347
  -31.2330   -9.7409   -9.2036 LP  0  0  0  0  0  0  0  0  0  0  0  0  # atno 8787 bound_to 380 
  -30.3892   -8.3548   -9.3863 LP  0  0  0  0  0  0  0  0  0  0  0  0  # atno 8788 bound_to 380 

$$$$
