unknown|11k_best|sdf|8295|dock2
  -GOLD-   3 721 1 23D 1   1.00000     0.00000

 33 37  0  0  0  0  0  0  0  0  1 V2000
  -47.1344  -14.8968  -11.4772 O   0  0  0  0  0  0  0  0  0  0  0  0
  -47.5545  -13.8773  -12.1027 C   0  0  0  0  0  0  0  0  0  0  0  0
  -47.5929  -12.6667  -11.3623 N   0  0  0  0  0  0  0  0  0  0  0  0
  -47.5120  -12.7063   -9.9045 C   0  0  0  0  0  0  0  0  0  0  0  0
  -46.3824  -13.5667   -9.4164 C   0  0  0  0  0  0  0  0  0  0  0  0
  -45.8640  -13.1637   -8.0951 C   0  0  0  0  0  0  0  0  0  0  0  0
  -46.4396  -12.3950   -7.1037 C   0  0  0  0  0  0  0  0  0  0  0  0
  -45.7681  -12.5790   -5.9493 N   0  0  0  0  0  0  0  0  0  0  0  0
  -44.8025  -13.4883   -6.1545 C   0  0  0  0  0  0  0  0  0  0  0  0
  -43.7518  -13.9799   -5.3897 C   0  0  0  0  0  0  0  0  0  0  0  0
  -43.1574  -15.1747   -5.7772 C   0  0  0  0  0  0  0  0  0  0  0  0
  -42.9544  -15.3237   -7.1433 C   0  0  0  0  0  0  0  0  0  0  0  0
  -42.2665  -16.4116   -7.6478 O   0  0  0  0  0  0  0  0  0  0  0  0
  -41.1160  -16.8371   -6.9613 C   0  0  0  0  0  0  0  0  0  0  0  0
  -40.2000  -15.7132   -6.6258 C   0  0  0  0  0  0  0  0  0  0  0  0
  -39.0202  -15.5832   -7.3350 C   0  0  0  0  0  0  0  0  0  0  0  0
  -38.0460  -14.7464   -6.8104 C   0  0  0  0  0  0  0  0  0  0  0  0
  -38.4583  -13.6069   -6.1524 C   0  0  0  0  0  0  0  0  0  0  0  0
  -39.6857  -13.6574   -5.5136 C   0  0  0  0  0  0  0  0  0  0  0  0
  -40.5536  -14.7052   -5.7372 C   0  0  0  0  0  0  0  0  0  0  0  0
  -43.8671  -14.7156   -7.9787 C   0  0  0  0  0  0  0  0  0  0  0  0
  -44.7463  -13.7443   -7.5159 C   0  0  0  0  0  0  0  0  0  0  0  0
  -47.4776  -13.9130  -13.5679 C   0  0  0  0  0  0  0  0  0  0  0  0
  -47.3916  -14.9951  -14.3797 N   0  0  0  0  0  0  0  0  0  0  0  0
  -47.8391  -14.6490  -15.6110 C   0  0  0  0  0  0  0  0  0  0  0  0
  -48.6643  -15.4342  -16.5344 C   0  0  0  0  0  0  0  0  0  0  0  0
  -48.4692  -16.8035  -16.6296 C   0  0  0  0  0  0  0  0  0  0  0  0
  -49.5362  -17.6561  -16.8842 C   0  0  0  0  0  0  0  0  0  0  0  0
  -50.8338  -17.1649  -16.9418 C   0  0  0  0  0  0  0  0  0  0  0  0
  -50.9573  -15.7851  -17.0226 C   0  0  0  0  0  0  0  0  0  0  0  0
  -49.8698  -14.9855  -16.9580 N   0  0  0  0  0  0  0  0  0  0  0  0
  -47.8636  -13.2939  -15.5773 N   0  0  0  0  0  0  0  0  0  0  0  0
  -47.4389  -12.8910  -14.4056 O   0  0  0  0  0  0  0  0  0  0  0  0
  1  2  2  0  0  0  0
  2  3  1  0  0  0  0
  3  4  1  0  0  0  0
  4  5  1  0  0  0  0
  5  6  1  0  0  0  0
  6  7  2  0  0  0  0
  7  8  1  0  0  0  0
  8  9  1  0  0  0  0
  9 10  2  0  0  0  0
 10 11  1  0  0  0  0
 11 12  2  0  0  0  0
 12 13  1  0  0  0  0
 13 14  1  0  0  0  0
 14 15  1  0  0  0  0
 15 16  2  0  0  0  0
 16 17  1  0  0  0  0
 17 18  2  0  0  0  0
 18 19  1  0  0  0  0
 19 20  2  0  0  0  0
 12 21  1  0  0  0  0
 21 22  2  0  0  0  0
  2 23  1  0  0  0  0
 23 24  2  0  0  0  0
 24 25  1  0  0  0  0
 25 26  1  0  0  0  0
 26 27  2  0  0  0  0
 27 28  1  0  0  0  0
 28 29  2  0  0  0  0
 29 30  1  0  0  0  0
 30 31  2  0  0  0  0
 25 32  2  0  0  0  0
 32 33  1  0  0  0  0
 22  6  1  0  0  0  0
 33 23  1  0  0  0  0
 22  9  1  0  0  0  0
 31 26  1  0  0  0  0
 20 15  1  0  0  0  0
M  END
>  <zinc_id>  (295) 
ZINC000012389055

>  <smiles>  (295) 
O=C(NCCc1c[nH]c2ccc(OCc3ccccc3)cc12)c1nc(-c2ccccn2)no1

>  <source_line>  (295) 
295

>  <source_data>  (295) 
ZINC000012389055

>  <source_name>  (295) 


>  <source_label>  (295) 
ZINC000012389055

>  <found_by>  (295) 
ZINC

> <Gold.Version>
5.8.1

> <Gold.Id.Protein>
ID|ID_protein|mol2

> <Gold.Goldscore.Fitness>
68.2819

> <Gold.Goldscore.Internal.Vdw>
-0.2682

> <Gold.Goldscore.Internal.Torsion>
-7.3521

> <Gold.Goldscore.External.Vdw>
48.5605

> <Gold.Goldscore.Internal.HBond>
0.0000

> <Gold.Goldscore.External.HBond>
9.6095

> <Gold.Goldscore.Internal.Correction>
0.4779

> <Gold.Goldscore.Hbonds>
donor molecule, donor type, donor heavy atom, donor atom, acceptor molecule, acceptor atom, score
      P1  H   426  4822       L1    31  0.27
      P1  H   435  4829       L1    32  0.16
      P1  H   441  4839       L1     3  0.84
      P1  H   441  4841       L1    33  0.03
      P1  H  1916  6166       L1     1  0.06

> <Gold.Goldscore.Internal.Vdw.Weighted>
-0.2682

> <Gold.Goldscore.Internal.Torsion.Weighted>
-7.3521

> <Gold.Goldscore.External.Vdw.Weighted>
66.7706

> <Gold.Goldscore.Internal.HBond.Weighted>
0.0000

> <Gold.Goldscore.External.HBond.Weighted>
9.6095

> <Gold.Goldscore.Internal.Correction.Weighted>
0.4779

> <Gold.Protein.RotatedTorsions>
[ 4464  112  111  109 ] final  -41.41 input   60.00 | X-H torsion
[ 4839  441  440  439 ] final -134.09 input   60.00 | X-H torsion
[ 4985  758  757  756 ] final  -85.17 input   60.00 | X-H torsion
[ 5271 1023 1022 1020 ] final  -78.62 input   60.00 | X-H torsion
[ 6036 1776 1775 1774 ] final   38.32 input   60.00 | X-H torsion
[ 6078 1819 1818 1817 ] final    9.52 input   60.00 | X-H torsion
[ 6166 1916 1915 1913 ] final -119.26 input   60.00 | X-H torsion
[ 4818   65   64   63 ] final   88.16 input   60.00 | X-H torsion
[ 6268 1997 1996 1994 ] final  139.26 input   60.00 | X-H torsion
[ 8592   72   71   70 ] final  -14.76 input   60.00 | X-H torsion
[ 4356  100   99   97 ] final  162.81 input   60.00 | X-H torsion
[ 8510  202  201  200 ] final  -65.71 input   60.00 | X-H torsion
[ 5330 1065 1064 1063 ] final -125.33 input   60.00 | X-H torsion
[ 6640 2347 2346 2344 ] final   65.41 input   60.00 | X-H torsion
[ 4452  380  379  378 ] final  -67.18 input   60.00 | X-H torsion
[ 4500  391  390  389 ] final   45.99 input   60.00 | X-H torsion

> <Gold.Protein.ActiveResidues>
 THR8    THR9    PRO10   ILE11   TYR12   TYR13   VAL14   ASN15   ALA16   HIS19  
 HIS22   SER25   VAL29   MET46   THR47   GLY48   THR49   ASP50   GLU51   HIS52  
 GLY53   GLN54   LYS55   VAL56   ALA57   GLU58   THR71   PHE78   ILE93   THR95  
 THR96   HIS100  GLU101  VAL104  TRP108  TYR126  VAL128  SER129  ASP130  GLU131 
 SER132  LEU210  SER211  ILE212  SER213  ARG214  LYS215  ARG216  SER218  VAL219 
 MET220  ASN221  TRP222  SER223  ILE224  PRO225  VAL226  HIS232  CYS233  ILE234 
 TYR235  VAL236  TRP237  LEU238  ASP239  ALA240  LEU241  PHE242  ASN243  TYR244 
 TYR245  THR246  HIS275  VAL276  VAL277  GLY278  LYS279  ASP280  ILE281  LEU282 
 LYS283  PHE284  HIS285  ALA286  ILE287  TYR288  TRP289  PRO290  PHE292  LEU304 
 TRP309 

> <Gold.Protein.RotatedAtoms>
  -31.9694   -7.7934   -6.4764 H   0  0  0  0  0  0  0  0  0  0  0  0  # atno 4356 bound_to 100 
  -30.9405   -9.2308   -9.7208 H   0  0  0  0  0  0  0  0  0  0  0  0  # atno 4452 bound_to 380 
  -44.7205  -11.4456  -16.5012 H   0  0  0  0  0  0  0  0  0  0  0  0  # atno 4464 bound_to 112 
  -35.0018  -11.3032  -16.2137 H   0  0  0  0  0  0  0  0  0  0  0  0  # atno 4500 bound_to 391 
  -31.6673  -15.3059   -3.5717 H   0  0  0  0  0  0  0  0  0  0  0  0  # atno 4818 bound_to 65  
  -48.3549  -11.4511  -12.7788 H   0  0  0  0  0  0  0  0  0  0  0  0  # atno 4839 bound_to 441 
  -49.5357  -10.8448  -13.7715 H   0  0  0  0  0  0  0  0  0  0  0  0  # atno 4840 bound_to 441 
  -48.0853  -11.3309  -14.4098 H   0  0  0  0  0  0  0  0  0  0  0  0  # atno 4841 bound_to 441 
  -38.2735  -17.4133  -17.3244 H   0  0  0  0  0  0  0  0  0  0  0  0  # atno 4985 bound_to 758 
  -54.5031  -16.4175  -13.6321 H   0  0  0  0  0  0  0  0  0  0  0  0  # atno 5271 bound_to 1023
  -54.1910  -15.7455   -6.8465 H   0  0  0  0  0  0  0  0  0  0  0  0  # atno 5330 bound_to 1065
  -54.7623  -16.2450  -18.4838 H   0  0  0  0  0  0  0  0  0  0  0  0  # atno 6036 bound_to 1776
  -45.1213  -16.9904  -19.5623 H   0  0  0  0  0  0  0  0  0  0  0  0  # atno 6078 bound_to 1819
  -48.9191  -15.2284  -11.0941 H   0  0  0  0  0  0  0  0  0  0  0  0  # atno 6166 bound_to 1916
  -35.7871  -15.7723   -5.3600 H   0  0  0  0  0  0  0  0  0  0  0  0  # atno 6268 bound_to 1997
  -49.1670  -20.8662   -1.0866 H   0  0  0  0  0  0  0  0  0  0  0  0  # atno 6640 bound_to 2347
  -35.0259   -7.1914   -1.1822 H   0  0  0  0  0  0  0  0  0  0  0  0  # atno 8510 bound_to 202 
  -32.7581   -9.7274   -3.9687 H   0  0  0  0  0  0  0  0  0  0  0  0  # atno 8592 bound_to 72  
  -45.7971  -10.2408  -16.3072 LP  0  0  0  0  0  0  0  0  0  0  0  0  # atno 8618 bound_to 112 
  -45.8951  -11.5839  -15.3835 LP  0  0  0  0  0  0  0  0  0  0  0  0  # atno 8619 bound_to 112 
  -38.4024  -17.5357  -15.7068 LP  0  0  0  0  0  0  0  0  0  0  0  0  # atno 8637 bound_to 758 
  -37.1441  -18.2288  -16.4832 LP  0  0  0  0  0  0  0  0  0  0  0  0  # atno 8638 bound_to 758 
  -54.7204  -16.6740  -15.2243 LP  0  0  0  0  0  0  0  0  0  0  0  0  # atno 8642 bound_to 1023
  -54.2458  -17.8990  -14.2544 LP  0  0  0  0  0  0  0  0  0  0  0  0  # atno 8643 bound_to 1023
  -53.3139  -16.7499  -17.9403 LP  0  0  0  0  0  0  0  0  0  0  0  0  # atno 8662 bound_to 1776
  -54.6771  -17.5197  -17.4758 LP  0  0  0  0  0  0  0  0  0  0  0  0  # atno 8663 bound_to 1776
  -45.2656  -17.8875  -18.2123 LP  0  0  0  0  0  0  0  0  0  0  0  0  # atno 8672 bound_to 1819
  -46.5076  -17.7902  -19.2680 LP  0  0  0  0  0  0  0  0  0  0  0  0  # atno 8673 bound_to 1819
  -50.4294  -15.8192  -10.9601 LP  0  0  0  0  0  0  0  0  0  0  0  0  # atno 8684 bound_to 1916
  -49.9137  -15.2032  -12.3818 LP  0  0  0  0  0  0  0  0  0  0  0  0  # atno 8685 bound_to 1916
  -30.4695  -15.7663   -2.5710 LP  0  0  0  0  0  0  0  0  0  0  0  0  # atno 8712 bound_to 65  
  -31.1360  -16.8438   -3.6012 LP  0  0  0  0  0  0  0  0  0  0  0  0  # atno 8713 bound_to 65  
  -34.4015  -14.9372   -5.1847 LP  0  0  0  0  0  0  0  0  0  0  0  0  # atno 8724 bound_to 1997
  -35.0224  -15.7684   -3.9237 LP  0  0  0  0  0  0  0  0  0  0  0  0  # atno 8725 bound_to 1997
  -32.2923   -8.7193   -5.1581 LP  0  0  0  0  0  0  0  0  0  0  0  0  # atno 8747 bound_to 72  
  -31.4657   -8.7631   -3.7505 LP  0  0  0  0  0  0  0  0  0  0  0  0  # atno 8748 bound_to 72  
  -33.1435   -8.1915   -5.4224 LP  0  0  0  0  0  0  0  0  0  0  0  0  # atno 8749 bound_to 100 
  -32.7911   -6.6217   -5.7017 LP  0  0  0  0  0  0  0  0  0  0  0  0  # atno 8750 bound_to 100 
  -35.6536   -7.3312   -2.6770 LP  0  0  0  0  0  0  0  0  0  0  0  0  # atno 8754 bound_to 202 
  -35.1990   -5.8677   -2.1128 LP  0  0  0  0  0  0  0  0  0  0  0  0  # atno 8755 bound_to 202 
  -54.6788  -14.4342   -7.6776 LP  0  0  0  0  0  0  0  0  0  0  0  0  # atno 8775 bound_to 1065
  -53.8867  -15.6407   -8.4416 LP  0  0  0  0  0  0  0  0  0  0  0  0  # atno 8776 bound_to 1065
  -49.5593  -21.1717   -2.6361 LP  0  0  0  0  0  0  0  0  0  0  0  0  # atno 8779 bound_to 2347
  -48.9675  -19.7095   -2.2137 LP  0  0  0  0  0  0  0  0  0  0  0  0  # atno 8780 bound_to 2347
  -30.2792   -8.2338   -8.6177 LP  0  0  0  0  0  0  0  0  0  0  0  0  # atno 8787 bound_to 380 
  -31.0802   -9.5728   -8.1360 LP  0  0  0  0  0  0  0  0  0  0  0  0  # atno 8788 bound_to 380 

$$$$
