unknown|11k_best|sdf|8311|dock10
  -GOLD-   3 721 1243D 1   1.00000     0.00000

 27 30  0  0  0  0  0  0  0  0  1 V2000
  -39.6392  -16.2283  -13.6197 C   0  0  0  0  0  0  0  0  0  0  0  0
  -40.8466  -16.9147  -14.2135 C   0  0  0  0  0  0  0  0  0  0  0  0
  -41.9965  -16.0943  -14.1434 O   0  0  0  0  0  0  0  0  0  0  0  0
  -43.1660  -16.5804  -14.7352 C   0  0  0  0  0  0  0  0  0  0  0  0
  -43.1614  -17.8458  -15.2528 C   0  0  0  0  0  0  0  0  0  0  0  0
  -44.2065  -18.3913  -15.9702 C   0  0  0  0  0  0  0  0  0  0  0  0
  -45.3132  -17.5671  -16.1400 C   0  0  0  0  0  0  0  0  0  0  0  0
  -45.3946  -16.3385  -15.4911 C   0  0  0  0  0  0  0  0  0  0  0  0
  -46.6503  -15.2672  -15.0045 S   0  0  0  0  0  0  0  0  0  0  0  0
  -45.7148  -14.2292  -14.0038 C   0  0  0  0  0  0  0  0  0  0  0  0
  -46.0950  -13.1100  -13.1949 N   0  0  0  0  0  0  0  0  0  0  0  0
  -45.0932  -12.3799  -12.4773 C   0  0  0  0  0  0  0  0  0  0  0  0
  -43.9361  -12.8903  -12.4657 O   0  0  0  0  0  0  0  0  0  0  0  0
  -45.4024  -11.2025  -11.6762 C   0  0  0  0  0  0  0  0  0  0  0  0
  -44.5383  -10.2644  -11.1270 C   0  0  0  0  0  0  0  0  0  0  0  0
  -45.2199   -9.4814  -10.2040 C   0  0  0  0  0  0  0  0  0  0  0  0
  -44.8895   -8.1293   -9.7371 C   0  0  0  0  0  0  0  0  0  0  0  0
  -43.6674   -7.4794   -9.8595 C   0  0  0  0  0  0  0  0  0  0  0  0
  -43.8260   -6.2610   -9.3094 N   0  0  0  0  0  0  0  0  0  0  0  0
  -42.7763   -5.2650   -9.1295 C   0  0  0  0  0  0  0  0  0  0  0  0
  -45.1208   -6.0045   -9.1373 N   0  0  0  0  0  0  0  0  0  0  0  0
  -45.7986   -7.0926   -9.5627 C   0  0  0  0  0  0  0  0  0  0  0  0
  -47.2470   -7.0617   -9.8974 C   0  0  0  0  0  0  0  0  0  0  0  0
  -46.5135   -9.8613  -10.3438 N   0  0  0  0  0  0  0  0  0  0  0  0
  -46.6060  -10.9053  -11.1369 N   0  0  0  0  0  0  0  0  0  0  0  0
  -44.4789  -14.5606  -14.4510 N   0  0  0  0  0  0  0  0  0  0  0  0
  -44.3703  -15.8859  -14.6655 C   0  0  0  0  0  0  0  0  0  0  0  0
  1  2  1  0  0  0  0
  2  3  1  0  0  0  0
  3  4  1  0  0  0  0
  4  5  2  0  0  0  0
  5  6  1  0  0  0  0
  6  7  2  0  0  0  0
  7  8  1  0  0  0  0
  8  9  1  0  0  0  0
  9 10  1  0  0  0  0
 10 11  1  0  0  0  0
 11 12  1  0  0  0  0
 12 13  2  0  0  0  0
 12 14  1  0  0  0  0
 14 15  1  0  0  0  0
 15 16  2  0  0  0  0
 16 17  1  0  0  0  0
 17 18  2  0  0  0  0
 18 19  1  0  0  0  0
 19 20  1  0  0  0  0
 19 21  1  0  0  0  0
 21 22  2  0  0  0  0
 22 23  1  0  0  0  0
 16 24  1  0  0  0  0
 24 25  1  0  0  0  0
 10 26  2  0  0  0  0
 26 27  1  0  0  0  0
 27  4  1  0  0  0  0
 27  8  2  0  0  0  0
 25 14  2  0  0  0  0
 22 17  1  0  0  0  0
M  END
>  <zinc_id>  (311) 
ZINC000019718699

>  <smiles>  (311) 
CCOc1cccc2sc(NC(=O)c3cc(-c4cn(C)nc4C)[nH]n3)nc12

>  <source_line>  (311) 
311

>  <source_data>  (311) 
ZINC000019718699

>  <source_name>  (311) 


>  <source_label>  (311) 
ZINC000019718699

>  <found_by>  (311) 
ZINC

> <Gold.Version>
5.8.1

> <Gold.Id.Protein>
ID|ID_protein|mol2

> <Gold.Goldscore.Fitness>
71.7772

> <Gold.Goldscore.Internal.Vdw>
0.8519

> <Gold.Goldscore.Internal.Torsion>
-3.1277

> <Gold.Goldscore.External.Vdw>
46.7587

> <Gold.Goldscore.Internal.HBond>
0.0000

> <Gold.Goldscore.External.HBond>
8.7279

> <Gold.Goldscore.Internal.Correction>
-1.0320

> <Gold.Goldscore.Hbonds>
donor molecule, donor type, donor heavy atom, donor atom, acceptor molecule, acceptor atom, score
      P1  H   441  4839       L1    11  0.87

> <Gold.Goldscore.Internal.Vdw.Weighted>
0.8519

> <Gold.Goldscore.Internal.Torsion.Weighted>
-3.1277

> <Gold.Goldscore.External.Vdw.Weighted>
64.2932

> <Gold.Goldscore.Internal.HBond.Weighted>
0.0000

> <Gold.Goldscore.External.HBond.Weighted>
8.7279

> <Gold.Goldscore.Internal.Correction.Weighted>
-1.0320

> <Gold.Protein.RotatedTorsions>
[ 4464  112  111  109 ] final   71.80 input   60.00 | X-H torsion
[ 4839  441  440  439 ] final  163.99 input   60.00 | X-H torsion
[ 4985  758  757  756 ] final  156.44 input   60.00 | X-H torsion
[ 5271 1023 1022 1020 ] final   83.14 input   60.00 | X-H torsion
[ 6036 1776 1775 1774 ] final  149.11 input   60.00 | X-H torsion
[ 6078 1819 1818 1817 ] final  -32.16 input   60.00 | X-H torsion
[ 6166 1916 1915 1913 ] final  -62.83 input   60.00 | X-H torsion
[ 4818   65   64   63 ] final  -11.17 input   60.00 | X-H torsion
[ 6268 1997 1996 1994 ] final  -80.30 input   60.00 | X-H torsion
[ 8592   72   71   70 ] final -121.96 input   60.00 | X-H torsion
[ 4356  100   99   97 ] final  -62.28 input   60.00 | X-H torsion
[ 8510  202  201  200 ] final   -2.32 input   60.00 | X-H torsion
[ 5330 1065 1064 1063 ] final   87.48 input   60.00 | X-H torsion
[ 6640 2347 2346 2344 ] final  125.80 input   60.00 | X-H torsion
[ 4452  380  379  378 ] final  149.31 input   60.00 | X-H torsion
[ 4500  391  390  389 ] final -138.97 input   60.00 | X-H torsion

> <Gold.Protein.ActiveResidues>
 THR8    THR9    PRO10   ILE11   TYR12   TYR13   VAL14   ASN15   ALA16   HIS19  
 HIS22   SER25   VAL29   MET46   THR47   GLY48   THR49   ASP50   GLU51   HIS52  
 GLY53   GLN54   LYS55   VAL56   ALA57   GLU58   THR71   PHE78   ILE93   THR95  
 THR96   HIS100  GLU101  VAL104  TRP108  TYR126  VAL128  SER129  ASP130  GLU131 
 SER132  LEU210  SER211  ILE212  SER213  ARG214  LYS215  ARG216  SER218  VAL219 
 MET220  ASN221  TRP222  SER223  ILE224  PRO225  VAL226  HIS232  CYS233  ILE234 
 TYR235  VAL236  TRP237  LEU238  ASP239  ALA240  LEU241  PHE242  ASN243  TYR244 
 TYR245  THR246  HIS275  VAL276  VAL277  GLY278  LYS279  ASP280  ILE281  LEU282 
 LYS283  PHE284  HIS285  ALA286  ILE287  TYR288  TRP289  PRO290  PHE292  LEU304 
 TRP309 

> <Gold.Protein.RotatedAtoms>
  -32.9604   -6.7171   -5.5544 H   0  0  0  0  0  0  0  0  0  0  0  0  # atno 4356 bound_to 100 
  -30.3521   -8.3828   -8.2726 H   0  0  0  0  0  0  0  0  0  0  0  0  # atno 4452 bound_to 380 
  -45.8145  -11.6579  -15.4049 H   0  0  0  0  0  0  0  0  0  0  0  0  # atno 4464 bound_to 112 
  -34.0491   -9.7465  -16.6237 H   0  0  0  0  0  0  0  0  0  0  0  0  # atno 4500 bound_to 391 
  -30.6208  -15.4681   -2.6148 H   0  0  0  0  0  0  0  0  0  0  0  0  # atno 4818 bound_to 65  
  -47.7768  -11.5705  -13.5669 H   0  0  0  0  0  0  0  0  0  0  0  0  # atno 4839 bound_to 441 
  -49.2087  -11.0988  -12.8782 H   0  0  0  0  0  0  0  0  0  0  0  0  # atno 4840 bound_to 441 
  -48.9903  -10.9576  -14.5151 H   0  0  0  0  0  0  0  0  0  0  0  0  # atno 4841 bound_to 441 
  -38.4160  -17.5220  -15.7261 H   0  0  0  0  0  0  0  0  0  0  0  0  # atno 4985 bound_to 758 
  -54.3950  -17.7650  -14.8934 H   0  0  0  0  0  0  0  0  0  0  0  0  # atno 5271 bound_to 1023
  -54.5518  -14.5053   -8.0947 H   0  0  0  0  0  0  0  0  0  0  0  0  # atno 5330 bound_to 1065
  -54.8019  -17.4608  -17.5374 H   0  0  0  0  0  0  0  0  0  0  0  0  # atno 6036 bound_to 1776
  -44.7766  -17.1706  -19.0217 H   0  0  0  0  0  0  0  0  0  0  0  0  # atno 6078 bound_to 1819
  -49.0449  -15.0188  -11.9449 H   0  0  0  0  0  0  0  0  0  0  0  0  # atno 6166 bound_to 1916
  -34.7459  -15.5838   -3.9512 H   0  0  0  0  0  0  0  0  0  0  0  0  # atno 6268 bound_to 1997
  -48.9037  -19.9944   -1.3265 H   0  0  0  0  0  0  0  0  0  0  0  0  # atno 6640 bound_to 2347
  -34.9391   -6.2240   -1.3387 H   0  0  0  0  0  0  0  0  0  0  0  0  # atno 8510 bound_to 202 
  -32.4520   -8.8550   -5.1588 H   0  0  0  0  0  0  0  0  0  0  0  0  # atno 8592 bound_to 72  
  -44.7152  -11.3548  -16.5659 LP  0  0  0  0  0  0  0  0  0  0  0  0  # atno 8618 bound_to 112 
  -45.8753  -10.2560  -16.2289 LP  0  0  0  0  0  0  0  0  0  0  0  0  # atno 8619 bound_to 112 
  -37.1464  -18.2306  -16.4569 LP  0  0  0  0  0  0  0  0  0  0  0  0  # atno 8637 bound_to 758 
  -38.2565  -17.4244  -17.3426 LP  0  0  0  0  0  0  0  0  0  0  0  0  # atno 8638 bound_to 758 
  -54.3154  -17.0319  -13.4427 LP  0  0  0  0  0  0  0  0  0  0  0  0  # atno 8642 bound_to 1023
  -54.7598  -16.1842  -14.7658 LP  0  0  0  0  0  0  0  0  0  0  0  0  # atno 8643 bound_to 1023
  -54.6333  -16.1759  -18.5218 LP  0  0  0  0  0  0  0  0  0  0  0  0  # atno 8662 bound_to 1776
  -53.3178  -16.8695  -17.8473 LP  0  0  0  0  0  0  0  0  0  0  0  0  # atno 8663 bound_to 1776
  -45.8912  -18.1124  -18.3014 LP  0  0  0  0  0  0  0  0  0  0  0  0  # atno 8672 bound_to 1819
  -46.2293  -17.3839  -19.7233 LP  0  0  0  0  0  0  0  0  0  0  0  0  # atno 8673 bound_to 1819
  -49.6458  -15.6493  -10.5703 LP  0  0  0  0  0  0  0  0  0  0  0  0  # atno 8684 bound_to 1916
  -50.5705  -15.5841  -11.9147 LP  0  0  0  0  0  0  0  0  0  0  0  0  # atno 8685 bound_to 1916
  -30.8880  -16.8822   -3.3744 LP  0  0  0  0  0  0  0  0  0  0  0  0  # atno 8712 bound_to 65  
  -31.7714  -15.5645   -3.7614 LP  0  0  0  0  0  0  0  0  0  0  0  0  # atno 8713 bound_to 65  
  -35.8732  -15.9224   -5.0749 LP  0  0  0  0  0  0  0  0  0  0  0  0  # atno 8724 bound_to 1997
  -34.5992  -14.9730   -5.4523 LP  0  0  0  0  0  0  0  0  0  0  0  0  # atno 8725 bound_to 1997
  -31.4230   -8.6415   -3.9164 LP  0  0  0  0  0  0  0  0  0  0  0  0  # atno 8747 bound_to 72  
  -32.6433   -9.7196   -3.7936 LP  0  0  0  0  0  0  0  0  0  0  0  0  # atno 8748 bound_to 72  
  -31.9333   -7.5533   -6.4998 LP  0  0  0  0  0  0  0  0  0  0  0  0  # atno 8749 bound_to 100 
  -33.0034   -8.3438   -5.5528 LP  0  0  0  0  0  0  0  0  0  0  0  0  # atno 8750 bound_to 100 
  -35.3653   -7.7211   -1.8131 LP  0  0  0  0  0  0  0  0  0  0  0  0  # atno 8754 bound_to 202 
  -35.5747   -6.4520   -2.8192 LP  0  0  0  0  0  0  0  0  0  0  0  0  # atno 8755 bound_to 202 
  -53.7977  -15.9467   -8.1336 LP  0  0  0  0  0  0  0  0  0  0  0  0  # atno 8775 bound_to 1065
  -54.4045  -15.3771   -6.7286 LP  0  0  0  0  0  0  0  0  0  0  0  0  # atno 8776 bound_to 1065
  -49.4947  -21.4550   -1.7333 LP  0  0  0  0  0  0  0  0  0  0  0  0  # atno 8779 bound_to 2347
  -49.2973  -20.3041   -2.8748 LP  0  0  0  0  0  0  0  0  0  0  0  0  # atno 8780 bound_to 2347
  -31.2074   -9.7560   -8.4489 LP  0  0  0  0  0  0  0  0  0  0  0  0  # atno 8787 bound_to 380 
  -30.7446   -8.9045   -9.7632 LP  0  0  0  0  0  0  0  0  0  0  0  0  # atno 8788 bound_to 380 

$$$$
