unknown|11k_best|sdf|8266|dock5
  -GOLD-   3 721 0263D 1   1.00000     0.00000

 31 34  0  0  0  0  0  0  0  0  1 V2000
  -43.5716  -19.2083  -15.9496 C   0  0  0  0  0  0  0  0  0  0  0  0
  -43.3129  -17.8088  -15.8797 O   0  0  0  0  0  0  0  0  0  0  0  0
  -44.3847  -16.9765  -15.5954 C   0  0  0  0  0  0  0  0  0  0  0  0
  -44.2001  -15.6681  -15.1669 C   0  0  0  0  0  0  0  0  0  0  0  0
  -45.2967  -15.0026  -14.6337 C   0  0  0  0  0  0  0  0  0  0  0  0
  -46.4783  -15.6879  -14.3794 C   0  0  0  0  0  0  0  0  0  0  0  0
  -46.7083  -16.8941  -15.0130 C   0  0  0  0  0  0  0  0  0  0  0  0
  -45.6830  -17.4382  -15.7720 C   0  0  0  0  0  0  0  0  0  0  0  0
  -45.9086  -18.4876  -16.6620 O   0  0  0  0  0  0  0  0  0  0  0  0
  -47.2487  -18.9115  -16.8738 C   0  0  0  0  0  0  0  0  0  0  0  0
  -47.3067  -15.2162  -13.2260 C   0  0  0  0  0  0  0  0  0  0  0  0
  -46.4845  -14.2572  -12.5133 N   0  0  0  0  0  0  0  0  0  0  0  0
  -47.0852  -13.7937  -11.2920 C   0  0  0  0  0  0  0  0  0  0  0  0
  -46.0847  -13.1999  -10.3516 C   0  0  0  0  0  0  0  0  0  0  0  0
  -44.9717  -12.5049  -10.8114 C   0  0  0  0  0  0  0  0  0  0  0  0
  -43.8185  -12.6038  -10.1851 O   0  0  0  0  0  0  0  0  0  0  0  0
  -43.6481  -13.3080   -9.0935 C   0  0  0  0  0  0  0  0  0  0  0  0
  -42.4088  -13.8367   -8.7195 O   0  0  0  0  0  0  0  0  0  0  0  0
  -44.7506  -13.8636   -8.4560 C   0  0  0  0  0  0  0  0  0  0  0  0
  -44.7000  -14.2049   -7.0175 C   0  0  0  0  0  0  0  0  0  0  0  0
  -43.5447  -15.0200   -6.7263 N   0  0  0  0  0  0  0  0  0  0  0  0
  -43.6478  -16.3495   -7.2663 C   0  0  0  0  0  0  0  0  0  0  0  0
  -42.2655  -16.7370   -7.7777 C   0  0  0  0  0  0  0  0  0  0  0  0
  -41.2745  -16.4963   -6.6471 C   0  0  0  0  0  0  0  0  0  0  0  0
  -41.0553  -15.0170   -6.4142 C   0  0  0  0  0  0  0  0  0  0  0  0
  -41.7976  -14.5415   -5.1764 C   0  0  0  0  0  0  0  0  0  0  0  0
  -43.2419  -15.0095   -5.3040 C   0  0  0  0  0  0  0  0  0  0  0  0
  -45.9936  -13.6587   -9.0428 C   0  0  0  0  0  0  0  0  0  0  0  0
  -47.0593  -14.1297   -8.5480 O   0  0  0  0  0  0  0  0  0  0  0  0
  -46.2865  -13.1267  -13.3918 C   0  0  0  0  0  0  0  0  0  0  0  0
  -45.2529  -13.5279  -14.4149 C   0  0  0  0  0  0  0  0  0  0  0  0
  1  2  1  0  0  0  0
  2  3  1  0  0  0  0
  3  4  2  0  0  0  0
  4  5  1  0  0  0  0
  5  6  2  0  0  0  0
  6  7  1  0  0  0  0
  7  8  2  0  0  0  0
  8  9  1  0  0  0  0
  9 10  1  0  0  0  0
  6 11  1  0  0  0  0
 11 12  1  0  0  0  0
 12 13  1  0  0  0  0
 13 14  1  0  0  0  0
 14 15  2  0  0  0  0
 15 16  1  0  0  0  0
 16 17  1  0  0  0  0
 17 18  1  0  0  0  0
 17 19  2  0  0  0  0
 19 20  1  0  0  0  0
 20 21  1  0  0  0  0
 21 22  1  0  0  0  0
 22 23  1  0  0  0  0
 23 24  1  0  0  0  0
 24 25  1  0  0  0  0
 25 26  1  0  0  0  0
 26 27  1  0  0  0  0
 19 28  1  0  0  0  0
 28 29  2  0  0  0  0
 12 30  1  0  0  0  0
 30 31  1  0  0  0  0
  8  3  1  0  0  0  0
 28 14  1  0  0  0  0
 31  5  1  0  0  0  0
 27 21  1  0  0  0  0
M  END
>  <zinc_id>  (266) 
ZINC000100796308

>  <smiles>  (266) 
COc1cc2c(cc1OC)CN(Cc1coc(O)c(CN3CCCCCC3)c1=O)CC2

>  <source_line>  (266) 
266

>  <source_data>  (266) 
ZINC000100796308

>  <source_name>  (266) 


>  <source_label>  (266) 
ZINC000100796308

>  <found_by>  (266) 
ZINC

> <Gold.Version>
5.8.1

> <Gold.Id.Protein>
ID|ID_protein|mol2

> <Gold.Goldscore.Fitness>
65.2743

> <Gold.Goldscore.Internal.Vdw>
0.4894

> <Gold.Goldscore.Internal.Torsion>
-1.5527

> <Gold.Goldscore.External.Vdw>
49.0322

> <Gold.Goldscore.Internal.HBond>
0.0000

> <Gold.Goldscore.External.HBond>
2.1626

> <Gold.Goldscore.Internal.Correction>
3.2443

> <Gold.Goldscore.Hbonds>
donor molecule, donor type, donor heavy atom, donor atom, acceptor molecule, acceptor atom, score
      P1  H  1819  6078       L1     9  1.00
      P1  H  1916  6166       L1    29  0.08

> <Gold.Goldscore.Internal.Vdw.Weighted>
0.4894

> <Gold.Goldscore.Internal.Torsion.Weighted>
-1.5527

> <Gold.Goldscore.External.Vdw.Weighted>
67.4193

> <Gold.Goldscore.Internal.HBond.Weighted>
0.0000

> <Gold.Goldscore.External.HBond.Weighted>
2.1626

> <Gold.Goldscore.Internal.Correction.Weighted>
3.2443

> <Gold.Protein.RotatedTorsions>
[ 4464  112  111  109 ] final -178.66 input   60.00 | X-H torsion
[ 4839  441  440  439 ] final -143.80 input   60.00 | X-H torsion
[ 4985  758  757  756 ] final   90.60 input   60.00 | X-H torsion
[ 5271 1023 1022 1020 ] final -101.08 input   60.00 | X-H torsion
[ 6036 1776 1775 1774 ] final   95.63 input   60.00 | X-H torsion
[ 6078 1819 1818 1817 ] final -129.68 input   60.00 | X-H torsion
[ 6166 1916 1915 1913 ] final -141.87 input   60.00 | X-H torsion
[ 4818   65   64   63 ] final -156.28 input   60.00 | X-H torsion
[ 6268 1997 1996 1994 ] final  -28.04 input   60.00 | X-H torsion
[ 8592   72   71   70 ] final   72.15 input   60.00 | X-H torsion
[ 4356  100   99   97 ] final   95.13 input   60.00 | X-H torsion
[ 8510  202  201  200 ] final -123.79 input   60.00 | X-H torsion
[ 5330 1065 1064 1063 ] final   61.41 input   60.00 | X-H torsion
[ 6640 2347 2346 2344 ] final   38.17 input   60.00 | X-H torsion
[ 4452  380  379  378 ] final   42.08 input   60.00 | X-H torsion
[ 4500  391  390  389 ] final  138.30 input   60.00 | X-H torsion

> <Gold.Protein.ActiveResidues>
 THR8    THR9    PRO10   ILE11   TYR12   TYR13   VAL14   ASN15   ALA16   HIS19  
 HIS22   SER25   VAL29   MET46   THR47   GLY48   THR49   ASP50   GLU51   HIS52  
 GLY53   GLN54   LYS55   VAL56   ALA57   GLU58   THR71   PHE78   ILE93   THR95  
 THR96   HIS100  GLU101  VAL104  TRP108  TYR126  VAL128  SER129  ASP130  GLU131 
 SER132  LEU210  SER211  ILE212  SER213  ARG214  LYS215  ARG216  SER218  VAL219 
 MET220  ASN221  TRP222  SER223  ILE224  PRO225  VAL226  HIS232  CYS233  ILE234 
 TYR235  VAL236  TRP237  LEU238  ASP239  ALA240  LEU241  PHE242  ASN243  TYR244 
 TYR245  THR246  HIS275  VAL276  VAL277  GLY278  LYS279  ASP280  ILE281  LEU282 
 LYS283  PHE284  HIS285  ALA286  ILE287  TYR288  TRP289  PRO290  PHE292  LEU304 
 TRP309 

> <Gold.Protein.RotatedAtoms>
  -32.5685   -8.4664   -5.9519 H   0  0  0  0  0  0  0  0  0  0  0  0  # atno 4356 bound_to 100 
  -31.1416   -9.6669   -8.2714 H   0  0  0  0  0  0  0  0  0  0  0  0  # atno 4452 bound_to 380 
  -45.9791  -10.3067  -16.1024 H   0  0  0  0  0  0  0  0  0  0  0  0  # atno 4464 bound_to 112 
  -35.1759  -10.1644  -16.9182 H   0  0  0  0  0  0  0  0  0  0  0  0  # atno 4500 bound_to 391 
  -31.1875  -16.8139   -3.6437 H   0  0  0  0  0  0  0  0  0  0  0  0  # atno 4818 bound_to 65  
  -48.2180  -11.4949  -12.8535 H   0  0  0  0  0  0  0  0  0  0  0  0  # atno 4839 bound_to 441 
  -49.5494  -10.8618  -13.6110 H   0  0  0  0  0  0  0  0  0  0  0  0  # atno 4840 bound_to 441 
  -48.2085  -11.2701  -14.4957 H   0  0  0  0  0  0  0  0  0  0  0  0  # atno 4841 bound_to 441 
  -37.5540  -18.0630  -15.7239 H   0  0  0  0  0  0  0  0  0  0  0  0  # atno 4985 bound_to 758 
  -54.6061  -16.1931  -13.9004 H   0  0  0  0  0  0  0  0  0  0  0  0  # atno 5271 bound_to 1023
  -54.3686  -14.7271   -8.4038 H   0  0  0  0  0  0  0  0  0  0  0  0  # atno 5330 bound_to 1065
  -55.1855  -16.8890  -18.0229 H   0  0  0  0  0  0  0  0  0  0  0  0  # atno 6036 bound_to 1776
  -45.5493  -18.0204  -18.2073 H   0  0  0  0  0  0  0  0  0  0  0  0  # atno 6078 bound_to 1819
  -49.0968  -15.3787  -10.8101 H   0  0  0  0  0  0  0  0  0  0  0  0  # atno 6166 bound_to 1916
  -34.2946  -15.1188   -4.4610 H   0  0  0  0  0  0  0  0  0  0  0  0  # atno 6268 bound_to 1997
  -49.3293  -21.2185   -1.2961 H   0  0  0  0  0  0  0  0  0  0  0  0  # atno 6640 bound_to 2347
  -35.3720   -7.7181   -1.8372 H   0  0  0  0  0  0  0  0  0  0  0  0  # atno 8510 bound_to 202 
  -31.7309   -9.1330   -3.4690 H   0  0  0  0  0  0  0  0  0  0  0  0  # atno 8592 bound_to 72  
  -45.6909  -11.7686  -15.4482 LP  0  0  0  0  0  0  0  0  0  0  0  0  # atno 8618 bound_to 112 
  -44.7337  -11.2030  -16.6442 LP  0  0  0  0  0  0  0  0  0  0  0  0  # atno 8619 bound_to 112 
  -37.5295  -17.8807  -17.3408 LP  0  0  0  0  0  0  0  0  0  0  0  0  # atno 8637 bound_to 758 
  -38.7414  -17.2295  -16.4611 LP  0  0  0  0  0  0  0  0  0  0  0  0  # atno 8638 bound_to 758 
  -54.6466  -17.0262  -15.2977 LP  0  0  0  0  0  0  0  0  0  0  0  0  # atno 8642 bound_to 1023
  -54.2159  -17.7729  -13.9109 LP  0  0  0  0  0  0  0  0  0  0  0  0  # atno 8643 bound_to 1023
  -53.7886  -16.1676  -18.4433 LP  0  0  0  0  0  0  0  0  0  0  0  0  # atno 8662 bound_to 1776
  -53.7762  -17.4535  -17.4368 LP  0  0  0  0  0  0  0  0  0  0  0  0  # atno 8663 bound_to 1776
  -46.4310  -17.6057  -19.5107 LP  0  0  0  0  0  0  0  0  0  0  0  0  # atno 8672 bound_to 1819
  -44.9113  -17.0347  -19.3340 LP  0  0  0  0  0  0  0  0  0  0  0  0  # atno 8673 bound_to 1819
  -50.5993  -15.7833  -11.2865 LP  0  0  0  0  0  0  0  0  0  0  0  0  # atno 8684 bound_to 1916
  -49.5648  -15.0876  -12.3412 LP  0  0  0  0  0  0  0  0  0  0  0  0  # atno 8685 bound_to 1916
  -31.6413  -15.2556   -3.5253 LP  0  0  0  0  0  0  0  0  0  0  0  0  # atno 8712 bound_to 65  
  -30.4474  -15.8358   -2.5743 LP  0  0  0  0  0  0  0  0  0  0  0  0  # atno 8713 bound_to 65  
  -35.6291  -16.0340   -4.2891 LP  0  0  0  0  0  0  0  0  0  0  0  0  # atno 8724 bound_to 1997
  -35.2979  -15.3297   -5.7247 LP  0  0  0  0  0  0  0  0  0  0  0  0  # atno 8725 bound_to 1997
  -32.9286   -9.6096   -4.4621 LP  0  0  0  0  0  0  0  0  0  0  0  0  # atno 8747 bound_to 72  
  -31.8639   -8.4714   -4.9497 LP  0  0  0  0  0  0  0  0  0  0  0  0  # atno 8748 bound_to 72  
  -33.2689   -7.1584   -5.2835 LP  0  0  0  0  0  0  0  0  0  0  0  0  # atno 8749 bound_to 100 
  -32.0624   -6.9771   -6.3689 LP  0  0  0  0  0  0  0  0  0  0  0  0  # atno 8750 bound_to 100 
  -35.5683   -6.4298   -2.8118 LP  0  0  0  0  0  0  0  0  0  0  0  0  # atno 8754 bound_to 202 
  -34.9358   -6.2387   -1.3184 LP  0  0  0  0  0  0  0  0  0  0  0  0  # atno 8755 bound_to 202 
  -53.8064  -16.1011   -7.7374 LP  0  0  0  0  0  0  0  0  0  0  0  0  # atno 8775 bound_to 1065
  -54.5802  -14.9993   -6.8135 LP  0  0  0  0  0  0  0  0  0  0  0  0  # atno 8776 bound_to 1065
  -49.4699  -20.8005   -2.8625 LP  0  0  0  0  0  0  0  0  0  0  0  0  # atno 8779 bound_to 2347
  -48.8936  -19.7259   -1.7762 LP  0  0  0  0  0  0  0  0  0  0  0  0  # atno 8780 bound_to 2347
  -30.8545   -9.0831   -9.7630 LP  0  0  0  0  0  0  0  0  0  0  0  0  # atno 8787 bound_to 380 
  -30.3025   -8.2842   -8.4502 LP  0  0  0  0  0  0  0  0  0  0  0  0  # atno 8788 bound_to 380 

$$$$
