unknown|11k_best|sdf|8279|dock5
  -GOLD-   3 721 0423D 1   1.00000     0.00000

 28 31  0  0  0  0  0  0  0  0  1 V2000
  -43.1393  -18.6720  -17.2458 C   0  0  0  0  0  0  0  0  0  0  0  0
  -44.5222  -18.7278  -16.9862 O   0  0  0  0  0  0  0  0  0  0  0  0
  -45.1312  -17.7821  -16.1753 C   0  0  0  0  0  0  0  0  0  0  0  0
  -46.4945  -17.6553  -16.2028 C   0  0  0  0  0  0  0  0  0  0  0  0
  -47.0794  -16.5917  -15.5650 C   0  0  0  0  0  0  0  0  0  0  0  0
  -46.3220  -15.5484  -15.0485 C   0  0  0  0  0  0  0  0  0  0  0  0
  -47.1739  -14.1208  -14.5416 S   0  0  0  0  0  0  0  0  0  0  0  0
  -48.3787  -13.8324  -15.3740 O   0  0  0  0  0  0  0  0  0  0  0  0
  -46.2372  -12.9456  -14.7132 O   0  0  0  0  0  0  0  0  0  0  0  0
  -47.6594  -14.1899  -12.8943 N   0  0  0  0  0  0  0  0  0  0  0  0
  -46.7955  -13.6039  -11.9280 C   0  0  0  0  0  0  0  0  0  0  0  0
  -45.5168  -13.1592  -12.2442 C   0  0  0  0  0  0  0  0  0  0  0  0
  -44.7994  -12.4625  -11.2785 C   0  0  0  0  0  0  0  0  0  0  0  0
  -44.9843  -12.7890   -9.9403 C   0  0  0  0  0  0  0  0  0  0  0  0
  -46.0291  -13.6160   -9.6238 C   0  0  0  0  0  0  0  0  0  0  0  0
  -46.3026  -14.1703   -8.2890 C   0  0  0  0  0  0  0  0  0  0  0  0
  -45.4479  -15.1690   -7.8931 O   0  0  0  0  0  0  0  0  0  0  0  0
  -44.2677  -14.7334   -7.3305 C   0  0  0  0  0  0  0  0  0  0  0  0
  -44.3818  -13.4527   -6.5602 C   0  0  0  0  0  0  0  0  0  0  0  0
  -45.3981  -12.4968   -7.1189 C   0  0  0  0  0  0  0  0  0  0  0  0
  -46.5743  -13.2231   -7.3252 O   0  0  0  0  0  0  0  0  0  0  0  0
  -47.0406  -13.7595  -10.5680 C   0  0  0  0  0  0  0  0  0  0  0  0
  -44.9476  -15.6736  -15.0099 C   0  0  0  0  0  0  0  0  0  0  0  0
  -44.3025  -14.8933  -14.0577 C   0  0  0  0  0  0  0  0  0  0  0  0
  -42.9915  -15.1985  -13.7178 C   0  0  0  0  0  0  0  0  0  0  0  0
  -42.4431  -16.3757  -14.1971 C   0  0  0  0  0  0  0  0  0  0  0  0
  -43.0576  -17.1497  -15.1654 C   0  0  0  0  0  0  0  0  0  0  0  0
  -44.3889  -16.8721  -15.4387 C   0  0  0  0  0  0  0  0  0  0  0  0
  1  2  1  0  0  0  0
  2  3  1  0  0  0  0
  3  4  2  0  0  0  0
  4  5  1  0  0  0  0
  5  6  2  0  0  0  0
  6  7  1  0  0  0  0
  7  8  2  0  0  0  0
  7  9  2  0  0  0  0
  7 10  1  0  0  0  0
 10 11  1  0  0  0  0
 11 12  2  0  0  0  0
 12 13  1  0  0  0  0
 13 14  2  0  0  0  0
 14 15  1  0  0  0  0
 15 16  1  0  0  0  0
 16 17  1  0  0  0  0
 17 18  1  0  0  0  0
 18 19  1  0  0  0  0
 19 20  1  0  0  0  0
 20 21  1  0  0  0  0
 15 22  2  0  0  0  0
  6 23  1  0  0  0  0
 23 24  2  0  0  0  0
 24 25  1  0  0  0  0
 25 26  2  0  0  0  0
 26 27  1  0  0  0  0
 27 28  2  0  0  0  0
 28  3  1  0  0  0  0
 22 11  1  0  0  0  0
 28 23  1  0  0  0  0
 21 16  1  0  0  0  0
M  END
>  <zinc_id>  (279) 
ZINC000005879923

>  <smiles>  (279) 
COc1ccc(S(=O)(=O)Nc2cccc(C3OCCCO3)c2)c2ccccc12

>  <source_line>  (279) 
279

>  <source_data>  (279) 
ZINC000005879923

>  <source_name>  (279) 


>  <source_label>  (279) 
ZINC000005879923

>  <found_by>  (279) 
ZINC

> <Gold.Version>
5.8.1

> <Gold.Id.Protein>
ID|ID_protein|mol2

> <Gold.Goldscore.Fitness>
76.5778

> <Gold.Goldscore.Internal.Vdw>
-0.2431

> <Gold.Goldscore.Internal.Torsion>
-4.5797

> <Gold.Goldscore.External.Vdw>
49.7941

> <Gold.Goldscore.Internal.HBond>
0.0000

> <Gold.Goldscore.External.HBond>
13.0704

> <Gold.Goldscore.Internal.Correction>
0.1367

> <Gold.Goldscore.Hbonds>
donor molecule, donor type, donor heavy atom, donor atom, acceptor molecule, acceptor atom, score
      P1  H   112  4464       L1     9  0.93
      P1  H   426  4822       L1     8  0.12
      P1  H   441  4840       L1     9  1.00
      P1  H  1916  6166       L1    10  0.83

> <Gold.Goldscore.Internal.Vdw.Weighted>
-0.2431

> <Gold.Goldscore.Internal.Torsion.Weighted>
-4.5797

> <Gold.Goldscore.External.Vdw.Weighted>
68.4669

> <Gold.Goldscore.Internal.HBond.Weighted>
0.0000

> <Gold.Goldscore.External.HBond.Weighted>
13.0704

> <Gold.Goldscore.Internal.Correction.Weighted>
0.1367

> <Gold.Protein.RotatedTorsions>
[ 4464  112  111  109 ] final   54.73 input   60.00 | X-H torsion
[ 4839  441  440  439 ] final   17.55 input   60.00 | X-H torsion
[ 4985  758  757  756 ] final  144.55 input   60.00 | X-H torsion
[ 5271 1023 1022 1020 ] final -140.17 input   60.00 | X-H torsion
[ 6036 1776 1775 1774 ] final  -27.27 input   60.00 | X-H torsion
[ 6078 1819 1818 1817 ] final  -26.49 input   60.00 | X-H torsion
[ 6166 1916 1915 1913 ] final  -65.08 input   60.00 | X-H torsion
[ 4818   65   64   63 ] final  -25.11 input   60.00 | X-H torsion
[ 6268 1997 1996 1994 ] final   52.87 input   60.00 | X-H torsion
[ 8592   72   71   70 ] final   13.75 input   60.00 | X-H torsion
[ 4356  100   99   97 ] final   15.97 input   60.00 | X-H torsion
[ 8510  202  201  200 ] final  -51.41 input   60.00 | X-H torsion
[ 5330 1065 1064 1063 ] final -113.66 input   60.00 | X-H torsion
[ 6640 2347 2346 2344 ] final   -0.86 input   60.00 | X-H torsion
[ 4452  380  379  378 ] final   19.66 input   60.00 | X-H torsion
[ 4500  391  390  389 ] final  105.42 input   60.00 | X-H torsion

> <Gold.Protein.ActiveResidues>
 THR8    THR9    PRO10   ILE11   TYR12   TYR13   VAL14   ASN15   ALA16   HIS19  
 HIS22   SER25   VAL29   MET46   THR47   GLY48   THR49   ASP50   GLU51   HIS52  
 GLY53   GLN54   LYS55   VAL56   ALA57   GLU58   THR71   PHE78   ILE93   THR95  
 THR96   HIS100  GLU101  VAL104  TRP108  TYR126  VAL128  SER129  ASP130  GLU131 
 SER132  LEU210  SER211  ILE212  SER213  ARG214  LYS215  ARG216  SER218  VAL219 
 MET220  ASN221  TRP222  SER223  ILE224  PRO225  VAL226  HIS232  CYS233  ILE234 
 TYR235  VAL236  TRP237  LEU238  ASP239  ALA240  LEU241  PHE242  ASN243  TYR244 
 TYR245  THR246  HIS275  VAL276  VAL277  GLY278  LYS279  ASP280  ILE281  LEU282 
 LYS283  PHE284  HIS285  ALA286  ILE287  TYR288  TRP289  PRO290  PHE292  LEU304 
 TRP309 

> <Gold.Protein.RotatedAtoms>
  -33.3012   -7.8131   -5.2737 H   0  0  0  0  0  0  0  0  0  0  0  0  # atno 4356 bound_to 100 
  -31.2339   -9.7922   -8.6005 H   0  0  0  0  0  0  0  0  0  0  0  0  # atno 4452 bound_to 380 
  -45.6040  -11.8178  -15.4906 H   0  0  0  0  0  0  0  0  0  0  0  0  # atno 4464 bound_to 112 
  -35.3575  -10.6316  -16.7466 H   0  0  0  0  0  0  0  0  0  0  0  0  # atno 4500 bound_to 391 
  -30.5127  -15.6648   -2.5800 H   0  0  0  0  0  0  0  0  0  0  0  0  # atno 4818 bound_to 65  
  -49.3237  -10.8626  -14.2480 H   0  0  0  0  0  0  0  0  0  0  0  0  # atno 4839 bound_to 441 
  -47.8129  -11.4963  -13.9967 H   0  0  0  0  0  0  0  0  0  0  0  0  # atno 4840 bound_to 441 
  -48.8394  -11.2679  -12.7156 H   0  0  0  0  0  0  0  0  0  0  0  0  # atno 4841 bound_to 441 
  -38.2747  -17.6215  -15.6383 H   0  0  0  0  0  0  0  0  0  0  0  0  # atno 4985 bound_to 758 
  -54.7362  -16.1028  -14.5065 H   0  0  0  0  0  0  0  0  0  0  0  0  # atno 5271 bound_to 1023
  -54.1004  -15.8756   -6.9518 H   0  0  0  0  0  0  0  0  0  0  0  0  # atno 5330 bound_to 1065
  -53.7512  -16.1910  -18.4242 H   0  0  0  0  0  0  0  0  0  0  0  0  # atno 6036 bound_to 1776
  -44.7999  -17.1312  -19.1021 H   0  0  0  0  0  0  0  0  0  0  0  0  # atno 6078 bound_to 1819
  -49.0246  -15.0206  -11.9142 H   0  0  0  0  0  0  0  0  0  0  0  0  # atno 6166 bound_to 1916
  -34.7610  -15.0364   -5.5798 H   0  0  0  0  0  0  0  0  0  0  0  0  # atno 6268 bound_to 1997
  -49.5151  -21.4648   -1.8403 H   0  0  0  0  0  0  0  0  0  0  0  0  # atno 6640 bound_to 2347
  -34.9698   -6.9719   -1.1273 H   0  0  0  0  0  0  0  0  0  0  0  0  # atno 8510 bound_to 202 
  -32.4609   -9.6600   -3.6228 H   0  0  0  0  0  0  0  0  0  0  0  0  # atno 8592 bound_to 72  
  -44.7581  -11.1048  -16.6840 LP  0  0  0  0  0  0  0  0  0  0  0  0  # atno 8618 bound_to 112 
  -46.0443  -10.3450  -16.0244 LP  0  0  0  0  0  0  0  0  0  0  0  0  # atno 8619 bound_to 112 
  -37.1439  -18.2081  -16.6509 LP  0  0  0  0  0  0  0  0  0  0  0  0  # atno 8637 bound_to 758 
  -38.4013  -17.3467  -17.2372 LP  0  0  0  0  0  0  0  0  0  0  0  0  # atno 8638 bound_to 758 
  -54.4698  -17.5966  -15.0946 LP  0  0  0  0  0  0  0  0  0  0  0  0  # atno 8642 bound_to 1023
  -54.2618  -17.2934  -13.5036 LP  0  0  0  0  0  0  0  0  0  0  0  0  # atno 8643 bound_to 1023
  -53.8179  -17.4738  -17.4252 LP  0  0  0  0  0  0  0  0  0  0  0  0  # atno 8662 bound_to 1776
  -55.1913  -16.8503  -18.0508 LP  0  0  0  0  0  0  0  0  0  0  0  0  # atno 8663 bound_to 1776
  -45.8068  -18.0972  -18.2648 LP  0  0  0  0  0  0  0  0  0  0  0  0  # atno 8672 bound_to 1819
  -46.2902  -17.4387  -19.6788 LP  0  0  0  0  0  0  0  0  0  0  0  0  # atno 8673 bound_to 1819
  -49.6806  -15.6620  -10.5703 LP  0  0  0  0  0  0  0  0  0  0  0  0  # atno 8684 bound_to 1916
  -50.5562  -15.5696  -11.9456 LP  0  0  0  0  0  0  0  0  0  0  0  0  # atno 8685 bound_to 1916
  -31.0543  -16.8692   -3.5309 LP  0  0  0  0  0  0  0  0  0  0  0  0  # atno 8712 bound_to 65  
  -31.7140  -15.3794   -3.6399 LP  0  0  0  0  0  0  0  0  0  0  0  0  # atno 8713 bound_to 65  
  -34.5859  -15.4554   -4.0171 LP  0  0  0  0  0  0  0  0  0  0  0  0  # atno 8724 bound_to 1997
  -35.8713  -15.9912   -4.8700 LP  0  0  0  0  0  0  0  0  0  0  0  0  # atno 8725 bound_to 1997
  -32.6356   -9.0285   -5.1123 LP  0  0  0  0  0  0  0  0  0  0  0  0  # atno 8747 bound_to 72  
  -31.4216   -8.5218   -4.1447 LP  0  0  0  0  0  0  0  0  0  0  0  0  # atno 8748 bound_to 72  
  -32.4663   -6.6169   -5.9950 LP  0  0  0  0  0  0  0  0  0  0  0  0  # atno 8749 bound_to 100 
  -32.1271   -8.1765   -6.3403 LP  0  0  0  0  0  0  0  0  0  0  0  0  # atno 8750 bound_to 100 
  -35.6178   -7.5038   -2.5220 LP  0  0  0  0  0  0  0  0  0  0  0  0  # atno 8754 bound_to 202 
  -35.2914   -5.9161   -2.3231 LP  0  0  0  0  0  0  0  0  0  0  0  0  # atno 8755 bound_to 202 
  -54.7052  -14.4641   -7.4901 LP  0  0  0  0  0  0  0  0  0  0  0  0  # atno 8775 bound_to 1065
  -53.9515  -15.4797   -8.5231 LP  0  0  0  0  0  0  0  0  0  0  0  0  # atno 8776 bound_to 1065
  -49.2573  -20.2078   -2.8412 LP  0  0  0  0  0  0  0  0  0  0  0  0  # atno 8779 bound_to 2347
  -48.9190  -20.0706   -1.2495 LP  0  0  0  0  0  0  0  0  0  0  0  0  # atno 8780 bound_to 2347
  -30.6621   -8.7726   -9.7325 LP  0  0  0  0  0  0  0  0  0  0  0  0  # atno 8787 bound_to 380 
  -30.4019   -8.4685   -8.1493 LP  0  0  0  0  0  0  0  0  0  0  0  0  # atno 8788 bound_to 380 

$$$$
