unknown|11k_best|sdf|8293|dock5
  -GOLD-   3 721 1 13D 1   1.00000     0.00000

 29 31  0  0  0  0  0  0  0  0  1 V2000
  -43.7934  -19.0629  -15.3663 C   0  0  0  0  0  0  0  0  0  0  0  0
  -44.3602  -17.7065  -15.1217 C   0  0  0  0  0  0  0  0  0  0  0  0
  -45.6421  -17.2973  -15.2247 N   0  0  0  0  0  0  0  0  0  0  0  0
  -45.7558  -16.0534  -14.8572 O   0  0  0  0  0  0  0  0  0  0  0  0
  -44.5881  -15.5730  -14.4856 C   0  0  0  0  0  0  0  0  0  0  0  0
  -44.3155  -14.4580  -13.6486 N   0  0  0  0  0  0  0  0  0  0  0  0
  -45.6506  -13.5081  -13.0809 S   0  0  0  0  0  0  0  0  0  0  0  0
  -46.7870  -14.3953  -12.7115 O   0  0  0  0  0  0  0  0  0  0  0  0
  -46.0938  -12.6046  -14.1943 O   0  0  0  0  0  0  0  0  0  0  0  0
  -45.0751  -12.5526  -11.7244 C   0  0  0  0  0  0  0  0  0  0  0  0
  -45.8206  -11.4721  -11.2695 C   0  0  0  0  0  0  0  0  0  0  0  0
  -45.2727  -10.4764  -10.4803 C   0  0  0  0  0  0  0  0  0  0  0  0
  -44.0656  -10.7556   -9.8522 C   0  0  0  0  0  0  0  0  0  0  0  0
  -43.5537   -9.7172   -9.0093 N   0  0  0  0  0  0  0  0  0  0  0  0
  -42.2484   -9.7311   -8.4686 C   0  0  0  0  0  0  0  0  0  0  0  0
  -41.9471   -8.8055   -7.6688 O   0  0  0  0  0  0  0  0  0  0  0  0
  -41.3949  -10.9476   -8.6473 C   0  0  0  0  0  0  0  0  0  0  0  0
  -40.5269  -11.1550   -7.5620 O   0  0  0  0  0  0  0  0  0  0  0  0
  -39.6625  -12.2505   -7.6288 C   0  0  0  0  0  0  0  0  0  0  0  0
  -40.1371  -13.3788   -8.2857 C   0  0  0  0  0  0  0  0  0  0  0  0
  -39.4545  -14.5810   -8.1446 C   0  0  0  0  0  0  0  0  0  0  0  0
  -38.6776  -14.7719   -7.0130 C   0  0  0  0  0  0  0  0  0  0  0  0
  -37.6969  -15.9001   -7.0818 C   0  0  0  0  0  0  0  0  0  0  0  0
  -38.4854  -13.7358   -6.1115 C   0  0  0  0  0  0  0  0  0  0  0  0
  -38.8754  -12.4612   -6.5029 C   0  0  0  0  0  0  0  0  0  0  0  0
  -43.2240  -11.6161  -10.5470 C   0  0  0  0  0  0  0  0  0  0  0  0
  -43.7013  -12.4395  -11.5595 C   0  0  0  0  0  0  0  0  0  0  0  0
  -43.6563  -16.5530  -14.8009 C   0  0  0  0  0  0  0  0  0  0  0  0
  -42.1692  -16.4045  -14.8341 C   0  0  0  0  0  0  0  0  0  0  0  0
  1  2  1  0  0  0  0
  2  3  2  0  0  0  0
  3  4  1  0  0  0  0
  4  5  1  0  0  0  0
  5  6  1  0  0  0  0
  6  7  1  0  0  0  0
  7  8  2  0  0  0  0
  7  9  2  0  0  0  0
  7 10  1  0  0  0  0
 10 11  2  0  0  0  0
 11 12  1  0  0  0  0
 12 13  2  0  0  0  0
 13 14  1  0  0  0  0
 14 15  1  0  0  0  0
 15 16  2  0  0  0  0
 15 17  1  0  0  0  0
 17 18  1  0  0  0  0
 18 19  1  0  0  0  0
 19 20  2  0  0  0  0
 20 21  1  0  0  0  0
 21 22  2  0  0  0  0
 22 23  1  0  0  0  0
 22 24  1  0  0  0  0
 24 25  2  0  0  0  0
 13 26  1  0  0  0  0
 26 27  2  0  0  0  0
  5 28  2  0  0  0  0
 28 29  1  0  0  0  0
 28  2  1  0  0  0  0
 27 10  1  0  0  0  0
 25 19  1  0  0  0  0
M  END
>  <zinc_id>  (293) 
ZINC000000636841

>  <smiles>  (293) 
Cc1ccc(OCC(=O)Nc2ccc(S(=O)(=O)Nc3onc(C)c3C)cc2)cc1

>  <source_line>  (293) 
293

>  <source_data>  (293) 
ZINC000000636841

>  <source_name>  (293) 


>  <source_label>  (293) 
ZINC000000636841

>  <found_by>  (293) 
ZINC

> <Gold.Version>
5.8.1

> <Gold.Id.Protein>
ID|ID_protein|mol2

> <Gold.Goldscore.Fitness>
72.0573

> <Gold.Goldscore.Internal.Vdw>
1.3166

> <Gold.Goldscore.Internal.Torsion>
-8.0209

> <Gold.Goldscore.External.Vdw>
48.3804

> <Gold.Goldscore.Internal.HBond>
0.0000

> <Gold.Goldscore.External.HBond>
6.1496

> <Gold.Goldscore.Internal.Correction>
-6.0889

> <Gold.Goldscore.Hbonds>
donor molecule, donor type, donor heavy atom, donor atom, acceptor molecule, acceptor atom, score
      P1  H   441  4839       L1     9  1.00
      P1  H  1819  6078       L1     3  0.02
      P1  H  1916  6166       L1     8  0.05

> <Gold.Goldscore.Internal.Vdw.Weighted>
1.3166

> <Gold.Goldscore.Internal.Torsion.Weighted>
-8.0209

> <Gold.Goldscore.External.Vdw.Weighted>
66.5230

> <Gold.Goldscore.Internal.HBond.Weighted>
0.0000

> <Gold.Goldscore.External.HBond.Weighted>
6.1496

> <Gold.Goldscore.Internal.Correction.Weighted>
-6.0889

> <Gold.Protein.RotatedTorsions>
[ 4464  112  111  109 ] final    4.03 input   60.00 | X-H torsion
[ 4839  441  440  439 ] final  153.24 input   60.00 | X-H torsion
[ 4985  758  757  756 ] final  152.72 input   60.00 | X-H torsion
[ 5271 1023 1022 1020 ] final   86.10 input   60.00 | X-H torsion
[ 6036 1776 1775 1774 ] final  -83.70 input   60.00 | X-H torsion
[ 6078 1819 1818 1817 ] final -111.25 input   60.00 | X-H torsion
[ 6166 1916 1915 1913 ] final  -95.53 input   60.00 | X-H torsion
[ 4818   65   64   63 ] final -145.16 input   60.00 | X-H torsion
[ 6268 1997 1996 1994 ] final  131.37 input   60.00 | X-H torsion
[ 8592   72   71   70 ] final  -62.16 input   60.00 | X-H torsion
[ 4356  100   99   97 ] final  -69.10 input   60.00 | X-H torsion
[ 8510  202  201  200 ] final -135.19 input   60.00 | X-H torsion
[ 5330 1065 1064 1063 ] final   -7.26 input   60.00 | X-H torsion
[ 6640 2347 2346 2344 ] final -113.13 input   60.00 | X-H torsion
[ 4452  380  379  378 ] final  -18.96 input   60.00 | X-H torsion
[ 4500  391  390  389 ] final   20.40 input   60.00 | X-H torsion

> <Gold.Protein.ActiveResidues>
 THR8    THR9    PRO10   ILE11   TYR12   TYR13   VAL14   ASN15   ALA16   HIS19  
 HIS22   SER25   VAL29   MET46   THR47   GLY48   THR49   ASP50   GLU51   HIS52  
 GLY53   GLN54   LYS55   VAL56   ALA57   GLU58   THR71   PHE78   ILE93   THR95  
 THR96   HIS100  GLU101  VAL104  TRP108  TYR126  VAL128  SER129  ASP130  GLU131 
 SER132  LEU210  SER211  ILE212  SER213  ARG214  LYS215  ARG216  SER218  VAL219 
 MET220  ASN221  TRP222  SER223  ILE224  PRO225  VAL226  HIS232  CYS233  ILE234 
 TYR235  VAL236  TRP237  LEU238  ASP239  ALA240  LEU241  PHE242  ASN243  TYR244 
 TYR245  THR246  HIS275  VAL276  VAL277  GLY278  LYS279  ASP280  ILE281  LEU282 
 LYS283  PHE284  HIS285  ALA286  ILE287  TYR288  TRP289  PRO290  PHE292  LEU304 
 TRP309 

> <Gold.Protein.RotatedAtoms>
  -32.8852   -6.6691   -5.6210 H   0  0  0  0  0  0  0  0  0  0  0  0  # atno 4356 bound_to 100 
  -31.2246   -9.7308   -9.2165 H   0  0  0  0  0  0  0  0  0  0  0  0  # atno 4452 bound_to 380 
  -44.9836  -11.8881  -15.9934 H   0  0  0  0  0  0  0  0  0  0  0  0  # atno 4464 bound_to 112 
  -34.6485  -11.3764  -16.0095 H   0  0  0  0  0  0  0  0  0  0  0  0  # atno 4500 bound_to 391 
  -31.0536  -16.8622   -3.5311 H   0  0  0  0  0  0  0  0  0  0  0  0  # atno 4818 bound_to 65  
  -47.7688  -11.5489  -13.7446 H   0  0  0  0  0  0  0  0  0  0  0  0  # atno 4839 bound_to 441 
  -49.0685  -11.1667  -12.7897 H   0  0  0  0  0  0  0  0  0  0  0  0  # atno 4840 bound_to 441 
  -49.1386  -10.9112  -14.4259 H   0  0  0  0  0  0  0  0  0  0  0  0  # atno 4841 bound_to 441 
  -38.3737  -17.5524  -15.6948 H   0  0  0  0  0  0  0  0  0  0  0  0  # atno 4985 bound_to 758 
  -54.4082  -17.7388  -14.9319 H   0  0  0  0  0  0  0  0  0  0  0  0  # atno 5271 bound_to 1023
  -53.8820  -15.6644   -8.4199 H   0  0  0  0  0  0  0  0  0  0  0  0  # atno 5330 bound_to 1065
  -53.3190  -16.7780  -17.9219 H   0  0  0  0  0  0  0  0  0  0  0  0  # atno 6036 bound_to 1776
  -45.2779  -17.8931  -18.2168 H   0  0  0  0  0  0  0  0  0  0  0  0  # atno 6078 bound_to 1819
  -48.8705  -15.1023  -11.4546 H   0  0  0  0  0  0  0  0  0  0  0  0  # atno 6166 bound_to 1916
  -35.7315  -15.7042   -5.4542 H   0  0  0  0  0  0  0  0  0  0  0  0  # atno 6268 bound_to 1997
  -49.3010  -20.3226   -2.8732 H   0  0  0  0  0  0  0  0  0  0  0  0  # atno 6640 bound_to 2347
  -35.4420   -7.7216   -2.0093 H   0  0  0  0  0  0  0  0  0  0  0  0  # atno 8510 bound_to 202 
  -32.9177   -9.4973   -4.6673 H   0  0  0  0  0  0  0  0  0  0  0  0  # atno 8592 bound_to 72  
  -45.2147  -10.4391  -16.6968 LP  0  0  0  0  0  0  0  0  0  0  0  0  # atno 8618 bound_to 112 
  -46.2126  -10.9399  -15.5052 LP  0  0  0  0  0  0  0  0  0  0  0  0  # atno 8619 bound_to 112 
  -37.1419  -18.2258  -16.5178 LP  0  0  0  0  0  0  0  0  0  0  0  0  # atno 8637 bound_to 758 
  -38.3035  -17.3985  -17.3133 LP  0  0  0  0  0  0  0  0  0  0  0  0  # atno 8638 bound_to 758 
  -54.3047  -17.0792  -13.4479 LP  0  0  0  0  0  0  0  0  0  0  0  0  # atno 8642 bound_to 1023
  -54.7571  -16.1633  -14.7219 LP  0  0  0  0  0  0  0  0  0  0  0  0  # atno 8643 bound_to 1023
  -54.7065  -17.5089  -17.4872 LP  0  0  0  0  0  0  0  0  0  0  0  0  # atno 8662 bound_to 1776
  -54.7379  -16.2241  -18.4947 LP  0  0  0  0  0  0  0  0  0  0  0  0  # atno 8663 bound_to 1776
  -46.5064  -17.7833  -19.2784 LP  0  0  0  0  0  0  0  0  0  0  0  0  # atno 8672 bound_to 1819
  -45.1091  -16.9854  -19.5568 LP  0  0  0  0  0  0  0  0  0  0  0  0  # atno 8673 bound_to 1819
  -50.1399  -15.7901  -10.7038 LP  0  0  0  0  0  0  0  0  0  0  0  0  # atno 8684 bound_to 1916
  -50.2521  -15.3593  -12.2749 LP  0  0  0  0  0  0  0  0  0  0  0  0  # atno 8685 bound_to 1916
  -31.7137  -15.3788   -3.6394 LP  0  0  0  0  0  0  0  0  0  0  0  0  # atno 8712 bound_to 65  
  -30.5098  -15.6640   -2.5736 LP  0  0  0  0  0  0  0  0  0  0  0  0  # atno 8713 bound_to 65  
  -34.3467  -14.9422   -5.0672 LP  0  0  0  0  0  0  0  0  0  0  0  0  # atno 8724 bound_to 1997
  -35.1332  -15.8320   -3.9463 LP  0  0  0  0  0  0  0  0  0  0  0  0  # atno 8725 bound_to 1997
  -31.7024   -8.4219   -4.7866 LP  0  0  0  0  0  0  0  0  0  0  0  0  # atno 8747 bound_to 72  
  -31.8949   -9.2923   -3.4184 LP  0  0  0  0  0  0  0  0  0  0  0  0  # atno 8748 bound_to 72  
  -31.9411   -7.6651   -6.4955 LP  0  0  0  0  0  0  0  0  0  0  0  0  # atno 8749 bound_to 100 
  -33.0712   -8.2804   -5.4900 LP  0  0  0  0  0  0  0  0  0  0  0  0  # atno 8750 bound_to 100 
  -35.5128   -6.2676   -2.7366 LP  0  0  0  0  0  0  0  0  0  0  0  0  # atno 8754 bound_to 202 
  -34.9208   -6.3973   -1.2203 LP  0  0  0  0  0  0  0  0  0  0  0  0  # atno 8755 bound_to 202 
  -54.2040  -15.7239   -6.8259 LP  0  0  0  0  0  0  0  0  0  0  0  0  # atno 8775 bound_to 1065
  -54.6727  -14.4326   -7.7089 LP  0  0  0  0  0  0  0  0  0  0  0  0  # atno 8776 bound_to 1065
  -48.9015  -19.9772   -1.3340 LP  0  0  0  0  0  0  0  0  0  0  0  0  # atno 8779 bound_to 2347
  -49.4904  -21.4515   -1.7166 LP  0  0  0  0  0  0  0  0  0  0  0  0  # atno 8780 bound_to 2347
  -30.3835   -8.3465   -9.3725 LP  0  0  0  0  0  0  0  0  0  0  0  0  # atno 8787 bound_to 380 
  -30.6898   -8.9565   -7.8890 LP  0  0  0  0  0  0  0  0  0  0  0  0  # atno 8788 bound_to 380 

$$$$
