unknown|11k_best|sdf|8307|dock3
  -GOLD-   3 721 1183D 1   1.00000     0.00000

 28 30  0  0  0  0  0  0  0  0  1 V2000
  -49.7648  -13.4127   -3.6515 C   0  0  0  0  0  0  0  0  0  0  0  0
  -49.6162  -14.2423   -4.9210 C   0  0  0  0  0  0  0  0  0  0  0  0
  -49.6099  -13.4298   -6.0744 O   0  0  0  0  0  0  0  0  0  0  0  0
  -49.2389  -13.8954   -7.3300 C   0  0  0  0  0  0  0  0  0  0  0  0
  -48.7816  -15.0774   -7.3640 O   0  0  0  0  0  0  0  0  0  0  0  0
  -49.1325  -13.0158   -8.5008 C   0  0  0  0  0  0  0  0  0  0  0  0
  -49.8823  -11.8465   -8.4665 C   0  0  0  0  0  0  0  0  0  0  0  0
  -49.4720  -10.7446   -9.2068 C   0  0  0  0  0  0  0  0  0  0  0  0
  -48.2596  -10.8232   -9.8820 C   0  0  0  0  0  0  0  0  0  0  0  0
  -47.6514  -12.0412  -10.1627 C   0  0  0  0  0  0  0  0  0  0  0  0
  -47.1739  -12.2767  -11.4955 N   0  0  0  0  0  0  0  0  0  0  0  0
  -46.5524  -13.5016  -11.8752 C   0  0  0  0  0  0  0  0  0  0  0  0
  -46.4633  -14.3728  -10.9589 O   0  0  0  0  0  0  0  0  0  0  0  0
  -46.4727  -13.9499  -13.2720 C   0  0  0  0  0  0  0  0  0  0  0  0
  -47.0002  -13.1743  -14.2974 C   0  0  0  0  0  0  0  0  0  0  0  0
  -47.6639  -13.6943  -15.3749 C   0  0  0  0  0  0  0  0  0  0  0  0
  -47.6530  -15.0698  -15.5857 C   0  0  0  0  0  0  0  0  0  0  0  0
  -48.6234  -15.8031  -16.1360 N   0  0  0  0  0  0  0  0  0  0  0  0
  -48.1450  -16.9376  -16.7047 C   0  0  0  0  0  0  0  0  0  0  0  0
  -49.0121  -17.7853  -17.4726 N   0  0  0  0  0  0  0  0  0  0  0  0
  -48.4978  -19.3992  -17.8577 S   0  0  0  0  0  0  0  0  0  0  0  0
  -49.5783  -20.1500  -19.0526 C   0  0  0  0  0  0  0  0  0  0  0  0
  -47.0671  -19.4388  -18.2841 O   0  0  0  0  0  0  0  0  0  0  0  0
  -48.6093  -20.2365  -16.6060 O   0  0  0  0  0  0  0  0  0  0  0  0
  -46.9382  -17.3394  -15.5445 S   0  0  0  0  0  0  0  0  0  0  0  0
  -46.8643  -15.8297  -14.7281 C   0  0  0  0  0  0  0  0  0  0  0  0
  -46.2680  -15.2847  -13.6001 C   0  0  0  0  0  0  0  0  0  0  0  0
  -48.0720  -13.1173   -9.3931 C   0  0  0  0  0  0  0  0  0  0  0  0
  1  2  1  0  0  0  0
  2  3  1  0  0  0  0
  3  4  1  0  0  0  0
  4  5  2  0  0  0  0
  4  6  1  0  0  0  0
  6  7  2  0  0  0  0
  7  8  1  0  0  0  0
  8  9  2  0  0  0  0
  9 10  1  0  0  0  0
 10 11  1  0  0  0  0
 11 12  1  0  0  0  0
 12 13  2  0  0  0  0
 12 14  1  0  0  0  0
 14 15  2  0  0  0  0
 15 16  1  0  0  0  0
 16 17  2  0  0  0  0
 17 18  1  0  0  0  0
 18 19  2  0  0  0  0
 19 20  1  0  0  0  0
 20 21  1  0  0  0  0
 21 22  1  0  0  0  0
 21 23  2  0  0  0  0
 21 24  2  0  0  0  0
 19 25  1  0  0  0  0
 25 26  1  0  0  0  0
 26 27  2  0  0  0  0
 10 28  2  0  0  0  0
 28  6  1  0  0  0  0
 27 14  1  0  0  0  0
 26 17  1  0  0  0  0
M  END
>  <zinc_id>  (307) 
ZINC000013719993

>  <smiles>  (307) 
CCOC(=O)c1cccc(NC(=O)c2ccc3nc(NS(C)(=O)=O)sc3c2)c1

>  <source_line>  (307) 
307

>  <source_data>  (307) 
ZINC000013719993

>  <source_name>  (307) 


>  <source_label>  (307) 
ZINC000013719993

>  <found_by>  (307) 
ZINC

> <Gold.Version>
5.8.1

> <Gold.Id.Protein>
ID|ID_protein|mol2

> <Gold.Goldscore.Fitness>
61.5311

> <Gold.Goldscore.Internal.Vdw>
1.3400

> <Gold.Goldscore.Internal.Torsion>
-9.9947

> <Gold.Goldscore.External.Vdw>
38.5998

> <Gold.Goldscore.Internal.HBond>
0.0000

> <Gold.Goldscore.External.HBond>
10.4850

> <Gold.Goldscore.Internal.Correction>
-6.6260

> <Gold.Goldscore.Hbonds>
donor molecule, donor type, donor heavy atom, donor atom, acceptor molecule, acceptor atom, score
      P1  H   441  4841       L1    11  1.00
      P1  H  1819  6078       L1    23  0.20
      P1  H  1916  6166       L1     5  0.05

> <Gold.Goldscore.Internal.Vdw.Weighted>
1.3400

> <Gold.Goldscore.Internal.Torsion.Weighted>
-9.9947

> <Gold.Goldscore.External.Vdw.Weighted>
53.0747

> <Gold.Goldscore.Internal.HBond.Weighted>
0.0000

> <Gold.Goldscore.External.HBond.Weighted>
10.4850

> <Gold.Goldscore.Internal.Correction.Weighted>
-6.6260

> <Gold.Protein.RotatedTorsions>
[ 4464  112  111  109 ] final  138.76 input   60.00 | X-H torsion
[ 4839  441  440  439 ] final  -33.07 input   60.00 | X-H torsion
[ 4985  758  757  756 ] final  -52.13 input   60.00 | X-H torsion
[ 5271 1023 1022 1020 ] final  -61.57 input   60.00 | X-H torsion
[ 6036 1776 1775 1774 ] final  -66.96 input   60.00 | X-H torsion
[ 6078 1819 1818 1817 ] final -176.41 input   60.00 | X-H torsion
[ 6166 1916 1915 1913 ] final  175.62 input   60.00 | X-H torsion
[ 4818   65   64   63 ] final  159.33 input   60.00 | X-H torsion
[ 6268 1997 1996 1994 ] final  110.61 input   60.00 | X-H torsion
[ 8592   72   71   70 ] final  -62.36 input   60.00 | X-H torsion
[ 4356  100   99   97 ] final -178.62 input   60.00 | X-H torsion
[ 8510  202  201  200 ] final   43.33 input   60.00 | X-H torsion
[ 5330 1065 1064 1063 ] final  176.00 input   60.00 | X-H torsion
[ 6640 2347 2346 2344 ] final  113.68 input   60.00 | X-H torsion
[ 4452  380  379  378 ] final  169.03 input   60.00 | X-H torsion
[ 4500  391  390  389 ] final   49.07 input   60.00 | X-H torsion

> <Gold.Protein.ActiveResidues>
 THR8    THR9    PRO10   ILE11   TYR12   TYR13   VAL14   ASN15   ALA16   HIS19  
 HIS22   SER25   VAL29   MET46   THR47   GLY48   THR49   ASP50   GLU51   HIS52  
 GLY53   GLN54   LYS55   VAL56   ALA57   GLU58   THR71   PHE78   ILE93   THR95  
 THR96   HIS100  GLU101  VAL104  TRP108  TYR126  VAL128  SER129  ASP130  GLU131 
 SER132  LEU210  SER211  ILE212  SER213  ARG214  LYS215  ARG216  SER218  VAL219 
 MET220  ASN221  TRP222  SER223  ILE224  PRO225  VAL226  HIS232  CYS233  ILE234 
 TYR235  VAL236  TRP237  LEU238  ASP239  ALA240  LEU241  PHE242  ASN243  TYR244 
 TYR245  THR246  HIS275  VAL276  VAL277  GLY278  LYS279  ASP280  ILE281  LEU282 
 LYS283  PHE284  HIS285  ALA286  ILE287  TYR288  TRP289  PRO290  PHE292  LEU304 
 TRP309 

> <Gold.Protein.RotatedAtoms>
  -31.9396   -7.4933   -6.4958 H   0  0  0  0  0  0  0  0  0  0  0  0  # atno 4356 bound_to 100 
  -30.2869   -8.2551   -8.5593 H   0  0  0  0  0  0  0  0  0  0  0  0  # atno 4452 bound_to 380 
  -46.2157  -10.7327  -15.6282 H   0  0  0  0  0  0  0  0  0  0  0  0  # atno 4464 bound_to 112 
  -35.0388  -11.2836  -16.2416 H   0  0  0  0  0  0  0  0  0  0  0  0  # atno 4500 bound_to 391 
  -31.6388  -16.3404   -3.9127 H   0  0  0  0  0  0  0  0  0  0  0  0  # atno 4818 bound_to 65  
  -49.5387  -10.8872  -13.4589 H   0  0  0  0  0  0  0  0  0  0  0  0  # atno 4839 bound_to 441 
  -48.3381  -11.2104  -14.5551 H   0  0  0  0  0  0  0  0  0  0  0  0  # atno 4840 bound_to 441 
  -48.0991  -11.5292  -12.9462 H   0  0  0  0  0  0  0  0  0  0  0  0  # atno 4841 bound_to 441 
  -37.8263  -17.6801  -17.4348 H   0  0  0  0  0  0  0  0  0  0  0  0  # atno 4985 bound_to 758 
  -54.4228  -16.6490  -13.5014 H   0  0  0  0  0  0  0  0  0  0  0  0  # atno 5271 bound_to 1023
  -54.6088  -14.9289   -6.8598 H   0  0  0  0  0  0  0  0  0  0  0  0  # atno 5330 bound_to 1065
  -53.3638  -16.5683  -18.0903 H   0  0  0  0  0  0  0  0  0  0  0  0  # atno 6036 bound_to 1776
  -46.2090  -18.1127  -18.5355 H   0  0  0  0  0  0  0  0  0  0  0  0  # atno 6078 bound_to 1819
  -49.6696  -15.6585  -10.5771 H   0  0  0  0  0  0  0  0  0  0  0  0  # atno 6166 bound_to 1916
  -35.5288  -15.5098   -5.6411 H   0  0  0  0  0  0  0  0  0  0  0  0  # atno 6268 bound_to 1997
  -48.9348  -20.1461   -1.2036 H   0  0  0  0  0  0  0  0  0  0  0  0  # atno 6640 bound_to 2347
  -35.1308   -5.8765   -1.9468 H   0  0  0  0  0  0  0  0  0  0  0  0  # atno 8510 bound_to 202 
  -32.9173   -9.4956   -4.6701 H   0  0  0  0  0  0  0  0  0  0  0  0  # atno 8592 bound_to 72  
  -45.1441  -11.9419  -15.8219 LP  0  0  0  0  0  0  0  0  0  0  0  0  # atno 8618 bound_to 112 
  -45.0423  -10.6007  -16.7479 LP  0  0  0  0  0  0  0  0  0  0  0  0  # atno 8619 bound_to 112 
  -38.6844  -17.3097  -16.1027 LP  0  0  0  0  0  0  0  0  0  0  0  0  # atno 8637 bound_to 758 
  -37.3124  -18.1861  -15.9761 LP  0  0  0  0  0  0  0  0  0  0  0  0  # atno 8638 bound_to 758 
  -54.7535  -16.4365  -15.0805 LP  0  0  0  0  0  0  0  0  0  0  0  0  # atno 8642 bound_to 1023
  -54.2937  -17.9035  -14.5298 LP  0  0  0  0  0  0  0  0  0  0  0  0  # atno 8643 bound_to 1023
  -54.4501  -17.5722  -17.4119 LP  0  0  0  0  0  0  0  0  0  0  0  0  # atno 8662 bound_to 1776
  -54.9492  -16.3719  -18.4003 LP  0  0  0  0  0  0  0  0  0  0  0  0  # atno 8663 bound_to 1776
  -45.9109  -17.1745  -19.8313 LP  0  0  0  0  0  0  0  0  0  0  0  0  # atno 8672 bound_to 1819
  -44.7670  -17.3730  -18.6829 LP  0  0  0  0  0  0  0  0  0  0  0  0  # atno 8673 bound_to 1819
  -50.5607  -15.5741  -11.9361 LP  0  0  0  0  0  0  0  0  0  0  0  0  # atno 8684 bound_to 1916
  -49.0265  -15.0151  -11.9263 LP  0  0  0  0  0  0  0  0  0  0  0  0  # atno 8685 bound_to 1916
  -31.1850  -15.0620   -3.0139 LP  0  0  0  0  0  0  0  0  0  0  0  0  # atno 8712 bound_to 65  
  -30.4491  -16.5061   -2.8148 LP  0  0  0  0  0  0  0  0  0  0  0  0  # atno 8713 bound_to 65  
  -34.2702  -15.0041   -4.7421 LP  0  0  0  0  0  0  0  0  0  0  0  0  # atno 8724 bound_to 1997
  -35.4138  -15.9658   -4.0832 LP  0  0  0  0  0  0  0  0  0  0  0  0  # atno 8725 bound_to 1997
  -31.7003   -8.4214   -4.7841 LP  0  0  0  0  0  0  0  0  0  0  0  0  # atno 8747 bound_to 72  
  -31.8974   -9.2945   -3.4182 LP  0  0  0  0  0  0  0  0  0  0  0  0  # atno 8748 bound_to 72  
  -32.9647   -8.3732   -5.5885 LP  0  0  0  0  0  0  0  0  0  0  0  0  # atno 8749 bound_to 100 
  -32.9999   -6.7422   -5.5161 LP  0  0  0  0  0  0  0  0  0  0  0  0  # atno 8750 bound_to 100 
  -35.0811   -7.3473   -1.2524 LP  0  0  0  0  0  0  0  0  0  0  0  0  # atno 8754 bound_to 202 
  -35.6660   -7.1758   -2.7674 LP  0  0  0  0  0  0  0  0  0  0  0  0  # atno 8755 bound_to 202 
  -54.3247  -14.7847   -8.4556 LP  0  0  0  0  0  0  0  0  0  0  0  0  # atno 8775 bound_to 1065
  -53.8200  -16.1125   -7.6502 LP  0  0  0  0  0  0  0  0  0  0  0  0  # atno 8776 bound_to 1065
  -49.5365  -21.4737   -1.9270 LP  0  0  0  0  0  0  0  0  0  0  0  0  # atno 8779 bound_to 2347
  -49.2242  -20.1327   -2.8049 LP  0  0  0  0  0  0  0  0  0  0  0  0  # atno 8780 bound_to 2347
  -31.1050   -9.6097   -8.1799 LP  0  0  0  0  0  0  0  0  0  0  0  0  # atno 8787 bound_to 380 
  -30.9128   -9.1794   -9.7434 LP  0  0  0  0  0  0  0  0  0  0  0  0  # atno 8788 bound_to 380 

$$$$
