unknown|11k_best|sdf|8283|dock5
  -GOLD-   3 721 0463D 1   1.00000     0.00000

 29 32  0  0  0  0  0  0  0  0  1 V2000
  -43.2982  -14.8486  -14.9268 C   0  0  0  0  0  0  0  0  0  0  0  0
  -44.5002  -15.7021  -14.9506 C   0  0  0  0  0  0  0  0  0  0  0  0
  -44.7119  -17.3216  -15.4920 S   0  0  0  0  0  0  0  0  0  0  0  0
  -46.3955  -17.2371  -15.8419 C   0  0  0  0  0  0  0  0  0  0  0  0
  -47.1334  -18.0619  -16.8185 C   0  0  0  0  0  0  0  0  0  0  0  0
  -46.8190  -19.3993  -17.0242 C   0  0  0  0  0  0  0  0  0  0  0  0
  -47.8488  -19.9816  -17.7536 C   0  0  0  0  0  0  0  0  0  0  0  0
  -48.8520  -19.0533  -17.7016 C   0  0  0  0  0  0  0  0  0  0  0  0
  -48.4014  -17.9566  -17.1789 O   0  0  0  0  0  0  0  0  0  0  0  0
  -46.6433  -15.9526  -15.6127 N   0  0  0  0  0  0  0  0  0  0  0  0
  -45.8312  -15.3661  -14.7442 C   0  0  0  0  0  0  0  0  0  0  0  0
  -46.2259  -14.1607  -13.9996 C   0  0  0  0  0  0  0  0  0  0  0  0
  -46.4009  -13.0438  -14.5611 O   0  0  0  0  0  0  0  0  0  0  0  0
  -46.0866  -14.0724  -12.5755 N   0  0  0  0  0  0  0  0  0  0  0  0
  -46.4688  -12.6548  -11.9890 C   0  0  2  0  0  0  0  0  0  0  0  0
  -45.1629  -12.6431  -10.9919 C   0  0  0  0  0  0  0  0  0  0  0  0
  -45.4827  -11.7201   -9.9300 N   0  0  0  0  0  0  0  0  0  0  0  0
  -44.3756  -11.0041   -9.3939 C   0  0  0  0  0  0  0  0  0  0  0  0
  -44.4175   -9.6101   -9.8894 C   0  0  0  0  0  0  0  0  0  0  0  0
  -44.0542   -8.5244   -9.1380 C   0  0  0  0  0  0  0  0  0  0  0  0
  -44.6926   -7.3197   -9.3418 C   0  0  0  0  0  0  0  0  0  0  0  0
  -45.5588   -7.1045  -10.3977 C   0  0  0  0  0  0  0  0  0  0  0  0
  -45.7519   -8.1472  -11.2869 C   0  0  0  0  0  0  0  0  0  0  0  0
  -45.1633   -9.3809  -11.0389 C   0  0  0  0  0  0  0  0  0  0  0  0
  -46.1272  -12.6004   -8.9520 C   0  0  0  0  0  0  0  0  0  0  0  0
  -46.5605  -13.7851   -9.7143 C   0  0  0  0  0  0  0  0  0  0  0  0
  -47.5974  -13.3782  -10.8969 C   0  0  1  0  0  0  0  0  0  0  0  0
  -48.0387  -11.9445  -10.2449 C   0  0  0  0  0  0  0  0  0  0  0  0
  -49.4001  -11.8692  -10.5818 O   0  0  0  0  0  0  0  0  0  0  0  0
  1  2  1  0  0  0  0
  2  3  1  0  0  0  0
  3  4  1  0  0  0  0
  4  5  1  0  0  0  0
  5  6  2  0  0  0  0
  6  7  1  0  0  0  0
  7  8  2  0  0  0  0
  8  9  1  0  0  0  0
  4 10  2  0  0  0  0
 10 11  1  0  0  0  0
 11 12  1  0  0  0  0
 12 13  2  0  0  0  0
 12 14  1  0  0  0  0
 15 14  1  0  0  0  0
 15 16  1  0  0  0  0
 16 17  1  0  0  0  0
 17 18  1  0  0  0  0
 18 19  1  0  0  0  0
 19 20  2  0  0  0  0
 20 21  1  0  0  0  0
 21 22  2  0  0  0  0
 22 23  1  0  0  0  0
 23 24  2  0  0  0  0
 17 25  1  0  0  0  0
 25 26  1  0  0  0  0
 26 27  1  0  0  0  0
 27 28  1  0  0  0  0
 28 29  1  0  0  0  0
 11  2  2  0  0  0  0
 27 15  1  0  0  0  0
  9  5  1  0  0  0  0
 24 19  1  0  0  0  0
M  END
>  <zinc_id>  (283) 
ZINC000252517178

>  <smiles>  (283) 
Cc1sc(-c2ccco2)nc1C(=O)N[C@@H]1CN(Cc2ccccc2)CC[C@H]1CO

>  <source_line>  (283) 
283

>  <source_data>  (283) 
ZINC000252517178

>  <source_name>  (283) 


>  <source_label>  (283) 
ZINC000252517178

>  <found_by>  (283) 
ZINC

> <Gold.Version>
5.8.1

> <Gold.Id.Protein>
ID|ID_protein|mol2

> <Gold.Goldscore.Fitness>
73.4583

> <Gold.Goldscore.Internal.Vdw>
2.1951

> <Gold.Goldscore.Internal.Torsion>
-7.1813

> <Gold.Goldscore.External.Vdw>
47.2286

> <Gold.Goldscore.Internal.HBond>
0.0000

> <Gold.Goldscore.External.HBond>
14.4811

> <Gold.Goldscore.Internal.Correction>
0.9758

> <Gold.Goldscore.Hbonds>
donor molecule, donor type, donor heavy atom, donor atom, acceptor molecule, acceptor atom, score
      P1  H   441  4840       L1    13  0.75
      P1  H   441  4841       L1    29  1.00

> <Gold.Goldscore.Internal.Vdw.Weighted>
2.1951

> <Gold.Goldscore.Internal.Torsion.Weighted>
-7.1813

> <Gold.Goldscore.External.Vdw.Weighted>
64.9393

> <Gold.Goldscore.Internal.HBond.Weighted>
0.0000

> <Gold.Goldscore.External.HBond.Weighted>
14.4811

> <Gold.Goldscore.Internal.Correction.Weighted>
0.9758

> <Gold.Protein.RotatedTorsions>
[ 4464  112  111  109 ] final -150.39 input   60.00 | X-H torsion
[ 4839  441  440  439 ] final   16.85 input   60.00 | X-H torsion
[ 4985  758  757  756 ] final   97.77 input   60.00 | X-H torsion
[ 5271 1023 1022 1020 ] final  -94.82 input   60.00 | X-H torsion
[ 6036 1776 1775 1774 ] final  122.87 input   60.00 | X-H torsion
[ 6078 1819 1818 1817 ] final  134.01 input   60.00 | X-H torsion
[ 6166 1916 1915 1913 ] final    8.42 input   60.00 | X-H torsion
[ 4818   65   64   63 ] final  144.94 input   60.00 | X-H torsion
[ 6268 1997 1996 1994 ] final  -80.62 input   60.00 | X-H torsion
[ 8592   72   71   70 ] final  -32.91 input   60.00 | X-H torsion
[ 4356  100   99   97 ] final   26.85 input   60.00 | X-H torsion
[ 8510  202  201  200 ] final   57.84 input   60.00 | X-H torsion
[ 5330 1065 1064 1063 ] final  -80.43 input   60.00 | X-H torsion
[ 6640 2347 2346 2344 ] final  -79.04 input   60.00 | X-H torsion
[ 4452  380  379  378 ] final  -56.27 input   60.00 | X-H torsion
[ 4500  391  390  389 ] final -117.75 input   60.00 | X-H torsion

> <Gold.Protein.ActiveResidues>
 THR8    THR9    PRO10   ILE11   TYR12   TYR13   VAL14   ASN15   ALA16   HIS19  
 HIS22   SER25   VAL29   MET46   THR47   GLY48   THR49   ASP50   GLU51   HIS52  
 GLY53   GLN54   LYS55   VAL56   ALA57   GLU58   THR71   PHE78   ILE93   THR95  
 THR96   HIS100  GLU101  VAL104  TRP108  TYR126  VAL128  SER129  ASP130  GLU131 
 SER132  LEU210  SER211  ILE212  SER213  ARG214  LYS215  ARG216  SER218  VAL219 
 MET220  ASN221  TRP222  SER223  ILE224  PRO225  VAL226  HIS232  CYS233  ILE234 
 TYR235  VAL236  TRP237  LEU238  ASP239  ALA240  LEU241  PHE242  ASN243  TYR244 
 TYR245  THR246  HIS275  VAL276  VAL277  GLY278  LYS279  ASP280  ILE281  LEU282 
 LYS283  PHE284  HIS285  ALA286  ILE287  TYR288  TRP289  PRO290  PHE292  LEU304 
 TRP309 

> <Gold.Protein.RotatedAtoms>
  -33.2525   -7.9768   -5.3218 H   0  0  0  0  0  0  0  0  0  0  0  0  # atno 4356 bound_to 100 
  -31.0242   -9.3721   -9.6524 H   0  0  0  0  0  0  0  0  0  0  0  0  # atno 4452 bound_to 380 
  -45.6583  -10.2466  -16.4226 H   0  0  0  0  0  0  0  0  0  0  0  0  # atno 4464 bound_to 112 
  -33.8100   -9.9000  -16.4286 H   0  0  0  0  0  0  0  0  0  0  0  0  # atno 4500 bound_to 391 
  -31.7265  -16.1230   -3.9202 H   0  0  0  0  0  0  0  0  0  0  0  0  # atno 4818 bound_to 65  
  -49.3309  -10.8610  -14.2389 H   0  0  0  0  0  0  0  0  0  0  0  0  # atno 4839 bound_to 441 
  -47.8164  -11.4934  -14.0076 H   0  0  0  0  0  0  0  0  0  0  0  0  # atno 4840 bound_to 441 
  -48.8287  -11.2724  -12.7138 H   0  0  0  0  0  0  0  0  0  0  0  0  # atno 4841 bound_to 441 
  -37.6439  -18.0137  -15.6670 H   0  0  0  0  0  0  0  0  0  0  0  0  # atno 4985 bound_to 758 
  -54.5785  -16.2446  -13.8164 H   0  0  0  0  0  0  0  0  0  0  0  0  # atno 5271 bound_to 1023
  -53.8887  -16.0966   -7.3911 H   0  0  0  0  0  0  0  0  0  0  0  0  # atno 5330 bound_to 1065
  -55.0787  -17.2208  -17.7529 H   0  0  0  0  0  0  0  0  0  0  0  0  # atno 6036 bound_to 1776
  -46.5046  -17.8303  -19.2058 H   0  0  0  0  0  0  0  0  0  0  0  0  # atno 6078 bound_to 1819
  -50.0263  -15.2542  -12.3580 H   0  0  0  0  0  0  0  0  0  0  0  0  # atno 6166 bound_to 1916
  -34.7501  -15.5869   -3.9500 H   0  0  0  0  0  0  0  0  0  0  0  0  # atno 6268 bound_to 1997
  -49.4780  -20.8412   -2.8421 H   0  0  0  0  0  0  0  0  0  0  0  0  # atno 6640 bound_to 2347
  -35.2199   -5.8812   -2.1659 H   0  0  0  0  0  0  0  0  0  0  0  0  # atno 8510 bound_to 202 
  -32.8766   -9.6870   -4.2361 H   0  0  0  0  0  0  0  0  0  0  0  0  # atno 8592 bound_to 72  
  -46.0065  -11.4414  -15.3741 LP  0  0  0  0  0  0  0  0  0  0  0  0  # atno 8618 bound_to 112 
  -44.7413  -11.5907  -16.3958 LP  0  0  0  0  0  0  0  0  0  0  0  0  # atno 8619 bound_to 112 
  -37.4470  -17.9399  -17.2807 LP  0  0  0  0  0  0  0  0  0  0  0  0  # atno 8637 bound_to 758 
  -38.7335  -17.2199  -16.5784 LP  0  0  0  0  0  0  0  0  0  0  0  0  # atno 8638 bound_to 758 
  -54.6702  -16.9261  -15.2913 LP  0  0  0  0  0  0  0  0  0  0  0  0  # atno 8642 bound_to 1023
  -54.2202  -17.8211  -14.0018 LP  0  0  0  0  0  0  0  0  0  0  0  0  # atno 8643 bound_to 1023
  -54.2142  -16.0923  -18.5450 LP  0  0  0  0  0  0  0  0  0  0  0  0  # atno 8662 bound_to 1776
  -53.4581  -17.1948  -17.6071 LP  0  0  0  0  0  0  0  0  0  0  0  0  # atno 8663 bound_to 1776
  -45.1764  -16.9819  -19.6111 LP  0  0  0  0  0  0  0  0  0  0  0  0  # atno 8672 bound_to 1819
  -45.2038  -17.8500  -18.2282 LP  0  0  0  0  0  0  0  0  0  0  0  0  # atno 8673 bound_to 1819
  -48.8817  -15.1791  -11.2038 LP  0  0  0  0  0  0  0  0  0  0  0  0  # atno 8684 bound_to 1916
  -50.3462  -15.8172  -10.8652 LP  0  0  0  0  0  0  0  0  0  0  0  0  # atno 8685 bound_to 1916
  -31.0106  -15.1139   -2.8632 LP  0  0  0  0  0  0  0  0  0  0  0  0  # atno 8712 bound_to 65  
  -30.5352  -16.6733   -2.9579 LP  0  0  0  0  0  0  0  0  0  0  0  0  # atno 8713 bound_to 65  
  -35.8727  -15.9204   -5.0798 LP  0  0  0  0  0  0  0  0  0  0  0  0  # atno 8724 bound_to 1997
  -34.5956  -14.9719   -5.4486 LP  0  0  0  0  0  0  0  0  0  0  0  0  # atno 8725 bound_to 1997
  -32.0530   -8.5629   -5.0763 LP  0  0  0  0  0  0  0  0  0  0  0  0  # atno 8747 bound_to 72  
  -31.5857   -8.9602   -3.5629 LP  0  0  0  0  0  0  0  0  0  0  0  0  # atno 8748 bound_to 72  
  -32.5976   -6.5940   -5.8759 LP  0  0  0  0  0  0  0  0  0  0  0  0  # atno 8749 bound_to 100 
  -32.0449   -8.0345   -6.4110 LP  0  0  0  0  0  0  0  0  0  0  0  0  # atno 8750 bound_to 100 
  -35.0105   -7.1407   -1.1570 LP  0  0  0  0  0  0  0  0  0  0  0  0  # atno 8754 bound_to 202 
  -35.6468   -7.3776   -2.6422 LP  0  0  0  0  0  0  0  0  0  0  0  0  # atno 8755 bound_to 202 
  -54.6771  -14.7228   -7.0180 LP  0  0  0  0  0  0  0  0  0  0  0  0  # atno 8775 bound_to 1065
  -54.1928  -14.9985   -8.5529 LP  0  0  0  0  0  0  0  0  0  0  0  0  # atno 8776 bound_to 1065
  -48.8979  -19.7151   -1.8206 LP  0  0  0  0  0  0  0  0  0  0  0  0  # atno 8779 bound_to 2347
  -49.3158  -21.1913   -1.2612 LP  0  0  0  0  0  0  0  0  0  0  0  0  # atno 8780 bound_to 2347
  -30.2731   -8.2105   -8.7952 LP  0  0  0  0  0  0  0  0  0  0  0  0  # atno 8787 bound_to 380 
  -31.0020   -9.4537   -8.0273 LP  0  0  0  0  0  0  0  0  0  0  0  0  # atno 8788 bound_to 380 

$$$$
