unknown|11k_best|sdf|178|dock8
  -GOLD-   2302121413D 1   1.00000     0.00000

 31 33  0  0  0  0  0  0  0  0  1 V2000
  -50.4495  -15.7537  -17.0400 C   0  0  0  0  0  0  0  0  0  0  0  0
  -49.6796  -14.8246  -16.3043 O   0  0  0  0  0  0  0  0  0  0  0  0
  -48.4460  -15.2303  -15.7981 C   0  0  0  0  0  0  0  0  0  0  0  0
  -47.9665  -16.4419  -16.2657 C   0  0  0  0  0  0  0  0  0  0  0  0
  -46.6663  -16.7952  -16.0295 C   0  0  0  0  0  0  0  0  0  0  0  0
  -46.3459  -18.1497  -16.1589 O   0  0  0  0  0  0  0  0  0  0  0  0
  -45.0026  -18.5199  -15.8711 C   0  0  0  0  0  0  0  0  0  0  0  0
  -45.8296  -15.8728  -15.4612 C   0  0  0  0  0  0  0  0  0  0  0  0
  -46.2758  -14.7115  -14.8422 C   0  0  0  0  0  0  0  0  0  0  0  0
  -45.6619  -14.1743  -13.6359 C   0  0  0  0  0  0  0  0  0  0  0  0
  -44.6032  -14.6568  -13.1303 O   0  0  0  0  0  0  0  0  0  0  0  0
  -46.1542  -13.0102  -12.9627 N   0  0  0  0  0  0  0  0  0  0  0  0
  -45.3903  -12.3561  -11.9411 C   0  0  0  0  0  0  0  0  0  0  0  0
  -44.3325  -12.8312  -11.2437 N   0  0  0  0  0  0  0  0  0  0  0  0
  -43.6209  -11.8477  -10.6905 C   0  0  0  0  0  0  0  0  0  0  0  0
  -42.1690  -12.0124  -10.3600 C   0  0  0  0  0  0  0  0  0  0  0  0
  -42.1349  -12.6137   -8.9907 C   0  0  0  0  0  0  0  0  0  0  0  0
  -42.8048  -12.1415   -8.0338 O   0  0  0  0  0  0  0  0  0  0  0  0
  -41.1758  -13.6318   -8.7577 N   0  0  0  0  0  0  0  0  0  0  0  0
  -41.0989  -14.2986   -7.4919 C   0  0  0  0  0  0  0  0  0  0  0  0
  -39.9281  -15.0163   -7.2761 C   0  0  0  0  0  0  0  0  0  0  0  0
  -38.6523  -14.4473   -7.7978 C   0  0  0  0  0  0  0  0  0  0  0  0
  -39.8585  -16.0520   -6.3724 C   0  0  0  0  0  0  0  0  0  0  0  0
  -41.0001  -16.4002   -5.6822 C   0  0  0  0  0  0  0  0  0  0  0  0
  -40.9190  -17.4126   -4.6104 C   0  0  0  0  0  0  0  0  0  0  0  0
  -42.2038  -15.9810   -6.1813 C   0  0  0  0  0  0  0  0  0  0  0  0
  -42.2585  -14.9582   -7.1009 C   0  0  0  0  0  0  0  0  0  0  0  0
  -43.5990  -14.4219   -7.4599 C   0  0  0  0  0  0  0  0  0  0  0  0
  -44.4320  -10.9784   -9.9668 C   0  0  0  0  0  0  0  0  0  0  0  0
  -45.8592  -11.0547  -10.9224 S   0  0  0  0  0  0  0  0  0  0  0  0
  -47.5789  -14.3491  -15.1633 C   0  0  0  0  0  0  0  0  0  0  0  0
  1  2  1  0  0  0  0
  2  3  1  0  0  0  0
  3  4  2  0  0  0  0
  4  5  1  0  0  0  0
  5  6  1  0  0  0  0
  6  7  1  0  0  0  0
  5  8  2  0  0  0  0
  8  9  1  0  0  0  0
  9 10  1  0  0  0  0
 10 11  2  0  0  0  0
 10 12  1  0  0  0  0
 12 13  1  0  0  0  0
 13 14  2  0  0  0  0
 14 15  1  0  0  0  0
 15 16  1  0  0  0  0
 16 17  1  0  0  0  0
 17 18  2  0  0  0  0
 17 19  1  0  0  0  0
 19 20  1  0  0  0  0
 20 21  2  0  0  0  0
 21 22  1  0  0  0  0
 21 23  1  0  0  0  0
 23 24  2  0  0  0  0
 24 25  1  0  0  0  0
 24 26  1  0  0  0  0
 26 27  2  0  0  0  0
 27 28  1  0  0  0  0
 15 29  2  0  0  0  0
 29 30  1  0  0  0  0
  9 31  2  0  0  0  0
 31  3  1  0  0  0  0
 30 13  1  0  0  0  0
 27 20  1  0  0  0  0
M  END
>  <zinc_id>  (178) 
ZINC000009659242

>  <smiles>  (178) 
COc1cc(OC)cc(C(=O)Nc2nc(CC(=O)Nc3c(C)cc(C)cc3C)cs2)c1

>  <source_line>  (178) 
178

>  <source_data>  (178) 
ZINC000009659242

>  <source_name>  (178) 


>  <source_label>  (178) 
ZINC000009659242

>  <found_by>  (178) 
ZINC

> <Gold.Version>
5.8.1

> <Gold.Id.Protein>
ID|ID_protein|mol2

> <Gold.Goldscore.Fitness>
82.4034

> <Gold.Goldscore.Internal.Vdw>
-1.3031

> <Gold.Goldscore.Internal.Torsion>
-13.0135

> <Gold.Goldscore.External.Vdw>
50.9747

> <Gold.Goldscore.Internal.HBond>
0.0000

> <Gold.Goldscore.External.HBond>
13.5113

> <Gold.Goldscore.Internal.Correction>
-13.1185

> <Gold.Goldscore.Hbonds>
donor molecule, donor type, donor heavy atom, donor atom, acceptor molecule, acceptor atom, score
      P1  H   426  4822       L1     2  0.92
      P1  H   441  4839       L1    12  0.98
      P1  H  1819  6078       L1     6  0.92

> <Gold.Goldscore.Internal.Vdw.Weighted>
-1.3031

> <Gold.Goldscore.Internal.Torsion.Weighted>
-13.0135

> <Gold.Goldscore.External.Vdw.Weighted>
70.0902

> <Gold.Goldscore.Internal.HBond.Weighted>
0.0000

> <Gold.Goldscore.External.HBond.Weighted>
13.5113

> <Gold.Goldscore.Internal.Correction.Weighted>
-13.1185

> <Gold.Protein.RotatedTorsions>
[ 4464  112  111  109 ] final   88.86 input   60.00 | X-H torsion
[ 4839  441  440  439 ] final  174.69 input   60.00 | X-H torsion
[ 4985  758  757  756 ] final  -91.61 input   60.00 | X-H torsion
[ 5271 1023 1022 1020 ] final -149.89 input   60.00 | X-H torsion
[ 6036 1776 1775 1774 ] final  171.92 input   60.00 | X-H torsion
[ 6078 1819 1818 1817 ] final -143.34 input   60.00 | X-H torsion
[ 6166 1916 1915 1913 ] final  -77.56 input   60.00 | X-H torsion
[ 4818   65   64   63 ] final -141.47 input   60.00 | X-H torsion
[ 6268 1997 1996 1994 ] final  -76.53 input   60.00 | X-H torsion
[ 8592   72   71   70 ] final  159.65 input   60.00 | X-H torsion
[ 4356  100   99   97 ] final -122.37 input   60.00 | X-H torsion
[ 8510  202  201  200 ] final  130.84 input   60.00 | X-H torsion
[ 5330 1065 1064 1063 ] final   63.60 input   60.00 | X-H torsion
[ 6640 2347 2346 2344 ] final -127.76 input   60.00 | X-H torsion
[ 4452  380  379  378 ] final  150.00 input   60.00 | X-H torsion
[ 4500  391  390  389 ] final   97.07 input   60.00 | X-H torsion

> <Gold.Protein.ActiveResidues>
 THR8    THR9    PRO10   ILE11   TYR12   TYR13   VAL14   ASN15   ALA16   HIS19  
 HIS22   SER25   VAL29   MET46   THR47   GLY48   THR49   ASP50   GLU51   HIS52  
 GLY53   GLN54   LYS55   VAL56   ALA57   GLU58   THR71   PHE78   ILE93   THR95  
 THR96   HIS100  GLU101  VAL104  TRP108  TYR126  VAL128  SER129  ASP130  GLU131 
 SER132  LEU210  SER211  ILE212  SER213  ARG214  LYS215  ARG216  SER218  VAL219 
 MET220  ASN221  TRP222  SER223  ILE224  PRO225  VAL226  HIS232  CYS233  ILE234 
 TYR235  VAL236  TRP237  LEU238  ASP239  ALA240  LEU241  PHE242  ASN243  TYR244 
 TYR245  THR246  HIS275  VAL276  VAL277  GLY278  LYS279  ASP280  ILE281  LEU282 
 LYS283  PHE284  HIS285  ALA286  ILE287  TYR288  TRP289  PRO290  PHE292  LEU304 
 TRP309 

> <Gold.Protein.RotatedAtoms>
  -32.2650   -6.7349   -6.1829 H   0  0  0  0  0  0  0  0  0  0  0  0  # atno 4356 bound_to 100 
  -30.3489   -8.3770   -8.2817 H   0  0  0  0  0  0  0  0  0  0  0  0  # atno 4452 bound_to 380 
  -45.9943  -11.4481  -15.3772 H   0  0  0  0  0  0  0  0  0  0  0  0  # atno 4464 bound_to 112 
  -35.3599  -10.7517  -16.6820 H   0  0  0  0  0  0  0  0  0  0  0  0  # atno 4500 bound_to 391 
  -31.0092  -16.8709   -3.4912 H   0  0  0  0  0  0  0  0  0  0  0  0  # atno 4818 bound_to 65  
  -47.8156  -11.5793  -13.3929 H   0  0  0  0  0  0  0  0  0  0  0  0  # atno 4839 bound_to 441 
  -49.3293  -11.0350  -12.9933 H   0  0  0  0  0  0  0  0  0  0  0  0  # atno 4840 bound_to 441 
  -48.8310  -11.0125  -14.5740 H   0  0  0  0  0  0  0  0  0  0  0  0  # atno 4841 bound_to 441 
  -38.3524  -17.3706  -17.2692 H   0  0  0  0  0  0  0  0  0  0  0  0  # atno 4985 bound_to 758 
  -54.7528  -16.1450  -14.6585 H   0  0  0  0  0  0  0  0  0  0  0  0  # atno 5271 bound_to 1023
  -54.3854  -14.7034   -8.3831 H   0  0  0  0  0  0  0  0  0  0  0  0  # atno 5330 bound_to 1065
  -54.4665  -17.5662  -17.4212 H   0  0  0  0  0  0  0  0  0  0  0  0  # atno 6036 bound_to 1776
  -45.7573  -18.0846  -18.2542 H   0  0  0  0  0  0  0  0  0  0  0  0  # atno 6078 bound_to 1819
  -48.9333  -15.0415  -11.7335 H   0  0  0  0  0  0  0  0  0  0  0  0  # atno 6166 bound_to 1916
  -34.6987  -15.5479   -3.9673 H   0  0  0  0  0  0  0  0  0  0  0  0  # atno 6268 bound_to 1997
  -49.2135  -20.1176   -2.7887 H   0  0  0  0  0  0  0  0  0  0  0  0  # atno 6640 bound_to 2347
  -35.6189   -6.6598   -2.8552 H   0  0  0  0  0  0  0  0  0  0  0  0  # atno 8510 bound_to 202 
  -31.5434   -8.4234   -4.5356 H   0  0  0  0  0  0  0  0  0  0  0  0  # atno 8592 bound_to 72  
  -44.7388  -11.5815  -16.4038 LP  0  0  0  0  0  0  0  0  0  0  0  0  # atno 8618 bound_to 112 
  -45.6706  -10.2406  -16.4189 LP  0  0  0  0  0  0  0  0  0  0  0  0  # atno 8619 bound_to 112 
  -38.3260  -17.5898  -15.6569 LP  0  0  0  0  0  0  0  0  0  0  0  0  # atno 8637 bound_to 758 
  -37.1410  -18.2176  -16.5887 LP  0  0  0  0  0  0  0  0  0  0  0  0  # atno 8638 bound_to 758 
  -54.4239  -17.7047  -14.9863 LP  0  0  0  0  0  0  0  0  0  0  0  0  # atno 8642 bound_to 1023
  -54.2909  -17.1429  -13.4588 LP  0  0  0  0  0  0  0  0  0  0  0  0  # atno 8643 bound_to 1023
  -54.9366  -16.3606  -18.4079 LP  0  0  0  0  0  0  0  0  0  0  0  0  # atno 8662 bound_to 1776
  -53.3523  -16.5786  -18.0781 LP  0  0  0  0  0  0  0  0  0  0  0  0  # atno 8663 bound_to 1776
  -46.3213  -17.4697  -19.6512 LP  0  0  0  0  0  0  0  0  0  0  0  0  # atno 8672 bound_to 1819
  -44.8115  -17.1061  -19.1464 LP  0  0  0  0  0  0  0  0  0  0  0  0  # atno 8673 bound_to 1819
  -49.8739  -15.7253  -10.5953 LP  0  0  0  0  0  0  0  0  0  0  0  0  # atno 8684 bound_to 1916
  -50.4548  -15.4853  -12.1025 LP  0  0  0  0  0  0  0  0  0  0  0  0  # atno 8685 bound_to 1916
  -31.7327  -15.4248   -3.6742 LP  0  0  0  0  0  0  0  0  0  0  0  0  # atno 8712 bound_to 65  
  -30.5355  -15.6092   -2.5790 LP  0  0  0  0  0  0  0  0  0  0  0  0  # atno 8713 bound_to 65  
  -35.8770  -15.9445   -5.0172 LP  0  0  0  0  0  0  0  0  0  0  0  0  # atno 8724 bound_to 1997
  -34.6431  -14.9870   -5.4938 LP  0  0  0  0  0  0  0  0  0  0  0  0  # atno 8725 bound_to 1997
  -32.1291   -9.4753   -3.4409 LP  0  0  0  0  0  0  0  0  0  0  0  0  # atno 8747 bound_to 72  
  -32.8522   -9.3204   -4.8968 LP  0  0  0  0  0  0  0  0  0  0  0  0  # atno 8748 bound_to 72  
  -32.3051   -8.3617   -6.1841 LP  0  0  0  0  0  0  0  0  0  0  0  0  # atno 8749 bound_to 100 
  -33.3318   -7.5175   -5.2356 LP  0  0  0  0  0  0  0  0  0  0  0  0  # atno 8750 bound_to 100 
  -34.9757   -6.0680   -1.4826 LP  0  0  0  0  0  0  0  0  0  0  0  0  # atno 8754 bound_to 202 
  -35.2798   -7.6663   -1.6224 LP  0  0  0  0  0  0  0  0  0  0  0  0  # atno 8755 bound_to 202 
  -53.8020  -16.0944   -7.7725 LP  0  0  0  0  0  0  0  0  0  0  0  0  # atno 8775 bound_to 1065
  -54.5677  -15.0298   -6.7993 LP  0  0  0  0  0  0  0  0  0  0  0  0  # atno 8776 bound_to 1065
  -48.9395  -20.1618   -1.1853 LP  0  0  0  0  0  0  0  0  0  0  0  0  # atno 8779 bound_to 2347
  -49.5406  -21.4733   -1.9503 LP  0  0  0  0  0  0  0  0  0  0  0  0  # atno 8780 bound_to 2347
  -31.2046   -9.7523   -8.4385 LP  0  0  0  0  0  0  0  0  0  0  0  0  # atno 8787 bound_to 380 
  -30.7506   -8.9141   -9.7644 LP  0  0  0  0  0  0  0  0  0  0  0  0  # atno 8788 bound_to 380 

$$$$
