unknown|11k_best|sdf|8267|dock6
  -GOLD-   3 721 0273D 1   1.00000     0.00000

 28 30  0  0  0  0  0  0  0  0  1 V2000
  -43.1149  -18.1656  -15.8310 C   0  0  0  0  0  0  0  0  0  0  0  0
  -44.2131  -17.7461  -16.6369 O   0  0  0  0  0  0  0  0  0  0  0  0
  -45.4475  -17.4754  -16.0377 C   0  0  0  0  0  0  0  0  0  0  0  0
  -46.5194  -16.9939  -16.7801 C   0  0  0  0  0  0  0  0  0  0  0  0
  -47.4341  -16.1082  -16.2224 C   0  0  0  0  0  0  0  0  0  0  0  0
  -47.1880  -15.5539  -14.9904 C   0  0  0  0  0  0  0  0  0  0  0  0
  -47.5480  -13.8740  -14.6095 S   0  0  0  0  0  0  0  0  0  0  0  0
  -46.3234  -13.0403  -14.8172 O   0  0  0  0  0  0  0  0  0  0  0  0
  -48.6277  -13.3718  -15.5060 O   0  0  0  0  0  0  0  0  0  0  0  0
  -48.0608  -13.8420  -12.9564 N   0  0  0  0  0  0  0  0  0  0  0  0
  -47.1455  -13.0678  -12.1423 C   0  0  0  0  0  0  0  0  0  0  0  0
  -47.6328  -13.0921  -10.7351 C   0  0  0  0  0  0  0  0  0  0  0  0
  -48.8788  -12.5800  -10.3946 C   0  0  0  0  0  0  0  0  0  0  0  0
  -49.5383  -13.0493   -9.2648 C   0  0  0  0  0  0  0  0  0  0  0  0
  -48.8975  -13.9026   -8.3827 C   0  0  0  0  0  0  0  0  0  0  0  0
  -47.6064  -14.3043   -8.6802 C   0  0  0  0  0  0  0  0  0  0  0  0
  -46.9187  -13.7105   -9.7316 C   0  0  0  0  0  0  0  0  0  0  0  0
  -47.2304  -15.3183   -7.6464 C   0  0  0  0  0  0  0  0  0  0  0  0
  -48.5615  -16.0387   -7.4613 C   0  0  0  0  0  0  0  0  0  0  0  0
  -49.4885  -14.9161   -7.5807 N   0  0  0  0  0  0  0  0  0  0  0  0
  -50.6002  -14.7292   -6.6964 C   0  0  0  0  0  0  0  0  0  0  0  0
  -50.5732  -13.6508   -6.0289 O   0  0  0  0  0  0  0  0  0  0  0  0
  -51.9368  -15.0782   -7.2727 C   0  0  0  0  0  0  0  0  0  0  0  0
  -51.9740  -16.4868   -7.8036 C   0  0  0  0  0  0  0  0  0  0  0  0
  -51.2547  -16.5115   -9.1415 C   0  0  0  0  0  0  0  0  0  0  0  0
  -51.3610  -17.4763   -6.8496 C   0  0  0  0  0  0  0  0  0  0  0  0
  -46.3514  -16.2698  -14.1528 C   0  0  0  0  0  0  0  0  0  0  0  0
  -45.5596  -17.2901  -14.6652 C   0  0  0  0  0  0  0  0  0  0  0  0
  1  2  1  0  0  0  0
  2  3  1  0  0  0  0
  3  4  2  0  0  0  0
  4  5  1  0  0  0  0
  5  6  2  0  0  0  0
  6  7  1  0  0  0  0
  7  8  2  0  0  0  0
  7  9  2  0  0  0  0
  7 10  1  0  0  0  0
 10 11  1  0  0  0  0
 11 12  1  0  0  0  0
 12 13  2  0  0  0  0
 13 14  1  0  0  0  0
 14 15  2  0  0  0  0
 15 16  1  0  0  0  0
 16 17  2  0  0  0  0
 16 18  1  0  0  0  0
 18 19  1  0  0  0  0
 19 20  1  0  0  0  0
 20 21  1  0  0  0  0
 21 22  2  0  0  0  0
 21 23  1  0  0  0  0
 23 24  1  0  0  0  0
 24 25  1  0  0  0  0
 24 26  1  0  0  0  0
  6 27  1  0  0  0  0
 27 28  2  0  0  0  0
 28  3  1  0  0  0  0
 17 12  1  0  0  0  0
 20 15  1  0  0  0  0
M  END
>  <zinc_id>  (267) 
ZINC000064977060

>  <smiles>  (267) 
COc1ccc(S(=O)(=O)NCc2ccc3c(c2)CCN3C(=O)CC(C)C)cc1

>  <source_line>  (267) 
267

>  <source_data>  (267) 
ZINC000064977060

>  <source_name>  (267) 


>  <source_label>  (267) 
ZINC000064977060

>  <found_by>  (267) 
ZINC

> <Gold.Version>
5.8.1

> <Gold.Id.Protein>
ID|ID_protein|mol2

> <Gold.Goldscore.Fitness>
66.6222

> <Gold.Goldscore.Internal.Vdw>
2.8076

> <Gold.Goldscore.Internal.Torsion>
-24.8281

> <Gold.Goldscore.External.Vdw>
41.0051

> <Gold.Goldscore.Internal.HBond>
0.0000

> <Gold.Goldscore.External.HBond>
14.3143

> <Gold.Goldscore.Internal.Correction>
-17.9464

> <Gold.Goldscore.Hbonds>
donor molecule, donor type, donor heavy atom, donor atom, acceptor molecule, acceptor atom, score
      P1  H   112  4464       L1     8  1.00
      P1  H   426  4822       L1     9  0.08
      P1  H   435  4829       L1     9  0.11
      P1  H   441  4839       L1     8  1.00
      P1  H  1916  6166       L1    10  0.99

> <Gold.Goldscore.Internal.Vdw.Weighted>
2.8076

> <Gold.Goldscore.Internal.Torsion.Weighted>
-24.8281

> <Gold.Goldscore.External.Vdw.Weighted>
56.3820

> <Gold.Goldscore.Internal.HBond.Weighted>
0.0000

> <Gold.Goldscore.External.HBond.Weighted>
14.3143

> <Gold.Goldscore.Internal.Correction.Weighted>
-17.9464

> <Gold.Protein.RotatedTorsions>
[ 4464  112  111  109 ] final   63.91 input   60.00 | X-H torsion
[ 4839  441  440  439 ] final  140.11 input   60.00 | X-H torsion
[ 4985  758  757  756 ] final   14.23 input   60.00 | X-H torsion
[ 5271 1023 1022 1020 ] final   62.07 input   60.00 | X-H torsion
[ 6036 1776 1775 1774 ] final  -25.37 input   60.00 | X-H torsion
[ 6078 1819 1818 1817 ] final  155.49 input   60.00 | X-H torsion
[ 6166 1916 1915 1913 ] final  -59.98 input   60.00 | X-H torsion
[ 4818   65   64   63 ] final  142.49 input   60.00 | X-H torsion
[ 6268 1997 1996 1994 ] final   15.57 input   60.00 | X-H torsion
[ 8592   72   71   70 ] final  108.56 input   60.00 | X-H torsion
[ 4356  100   99   97 ] final  -30.98 input   60.00 | X-H torsion
[ 8510  202  201  200 ] final  165.75 input   60.00 | X-H torsion
[ 5330 1065 1064 1063 ] final  176.20 input   60.00 | X-H torsion
[ 6640 2347 2346 2344 ] final  -36.77 input   60.00 | X-H torsion
[ 4452  380  379  378 ] final -162.79 input   60.00 | X-H torsion
[ 4500  391  390  389 ] final    0.94 input   60.00 | X-H torsion

> <Gold.Protein.ActiveResidues>
 THR8    THR9    PRO10   ILE11   TYR12   TYR13   VAL14   ASN15   ALA16   HIS19  
 HIS22   SER25   VAL29   MET46   THR47   GLY48   THR49   ASP50   GLU51   HIS52  
 GLY53   GLN54   LYS55   VAL56   ALA57   GLU58   THR71   PHE78   ILE93   THR95  
 THR96   HIS100  GLU101  VAL104  TRP108  TYR126  VAL128  SER129  ASP130  GLU131 
 SER132  LEU210  SER211  ILE212  SER213  ARG214  LYS215  ARG216  SER218  VAL219 
 MET220  ASN221  TRP222  SER223  ILE224  PRO225  VAL226  HIS232  CYS233  ILE234 
 TYR235  VAL236  TRP237  LEU238  ASP239  ALA240  LEU241  PHE242  ASN243  TYR244 
 TYR245  THR246  HIS275  VAL276  VAL277  GLY278  LYS279  ASP280  ILE281  LEU282 
 LYS283  PHE284  HIS285  ALA286  ILE287  TYR288  TRP289  PRO290  PHE292  LEU304 
 TRP309 

> <Gold.Protein.RotatedAtoms>
  -33.2316   -7.0717   -5.3181 H   0  0  0  0  0  0  0  0  0  0  0  0  # atno 4356 bound_to 100 
  -30.2916   -8.2286   -9.0143 H   0  0  0  0  0  0  0  0  0  0  0  0  # atno 4452 bound_to 380 
  -45.7199  -11.7390  -15.4377 H   0  0  0  0  0  0  0  0  0  0  0  0  # atno 4464 bound_to 112 
  -34.3554  -11.3216  -15.9033 H   0  0  0  0  0  0  0  0  0  0  0  0  # atno 4500 bound_to 391 
  -31.7376  -16.0847   -3.9173 H   0  0  0  0  0  0  0  0  0  0  0  0  # atno 4818 bound_to 65  
  -47.8012  -11.5065  -13.9569 H   0  0  0  0  0  0  0  0  0  0  0  0  # atno 4839 bound_to 441 
  -48.8781  -11.2514  -12.7229 H   0  0  0  0  0  0  0  0  0  0  0  0  # atno 4840 bound_to 441 
  -49.2965  -10.8689  -14.2805 H   0  0  0  0  0  0  0  0  0  0  0  0  # atno 4841 bound_to 441 
  -37.1738  -18.1666  -16.8122 H   0  0  0  0  0  0  0  0  0  0  0  0  # atno 4985 bound_to 758 
  -54.3098  -17.8883  -14.5856 H   0  0  0  0  0  0  0  0  0  0  0  0  # atno 5271 bound_to 1023
  -54.6078  -14.9316   -6.8582 H   0  0  0  0  0  0  0  0  0  0  0  0  # atno 5330 bound_to 1065
  -53.7776  -16.1795  -18.4359 H   0  0  0  0  0  0  0  0  0  0  0  0  # atno 6036 bound_to 1776
  -46.4496  -17.9935  -18.9023 H   0  0  0  0  0  0  0  0  0  0  0  0  # atno 6078 bound_to 1819
  -49.0721  -15.0175  -11.9826 H   0  0  0  0  0  0  0  0  0  0  0  0  # atno 6166 bound_to 1916
  -34.3779  -14.9440   -5.1289 H   0  0  0  0  0  0  0  0  0  0  0  0  # atno 6268 bound_to 1997
  -49.5746  -21.3435   -2.4015 H   0  0  0  0  0  0  0  0  0  0  0  0  # atno 6640 bound_to 2347
  -35.6597   -7.2090   -2.7453 H   0  0  0  0  0  0  0  0  0  0  0  0  # atno 8510 bound_to 202 
  -31.4547   -8.7339   -3.7957 H   0  0  0  0  0  0  0  0  0  0  0  0  # atno 8592 bound_to 72  
  -44.7269  -11.2408  -16.6267 LP  0  0  0  0  0  0  0  0  0  0  0  0  # atno 8618 bound_to 112 
  -45.9589  -10.2884  -16.1351 LP  0  0  0  0  0  0  0  0  0  0  0  0  # atno 8619 bound_to 112 
  -38.5112  -17.2922  -17.1199 LP  0  0  0  0  0  0  0  0  0  0  0  0  # atno 8637 bound_to 758 
  -38.1427  -17.7135  -15.5859 LP  0  0  0  0  0  0  0  0  0  0  0  0  # atno 8638 bound_to 758 
  -54.4034  -16.7004  -13.4773 LP  0  0  0  0  0  0  0  0  0  0  0  0  # atno 8642 bound_to 1023
  -54.7576  -16.3916  -15.0413 LP  0  0  0  0  0  0  0  0  0  0  0  0  # atno 8643 bound_to 1023
  -53.7905  -17.4607  -17.4327 LP  0  0  0  0  0  0  0  0  0  0  0  0  # atno 8662 bound_to 1776
  -55.1922  -16.8749  -18.0316 LP  0  0  0  0  0  0  0  0  0  0  0  0  # atno 8663 bound_to 1776
  -45.4844  -17.0175  -19.7764 LP  0  0  0  0  0  0  0  0  0  0  0  0  # atno 8672 bound_to 1819
  -44.9512  -17.6500  -18.3685 LP  0  0  0  0  0  0  0  0  0  0  0  0  # atno 8673 bound_to 1819
  -49.6021  -15.6326  -10.5724 LP  0  0  0  0  0  0  0  0  0  0  0  0  # atno 8684 bound_to 1916
  -50.5869  -15.6021  -11.8747 LP  0  0  0  0  0  0  0  0  0  0  0  0  # atno 8685 bound_to 1916
  -30.9812  -15.1282   -2.8398 LP  0  0  0  0  0  0  0  0  0  0  0  0  # atno 8712 bound_to 65  
  -30.5535  -16.6975   -2.9843 LP  0  0  0  0  0  0  0  0  0  0  0  0  # atno 8713 bound_to 65  
  -35.0743  -15.7989   -3.9322 LP  0  0  0  0  0  0  0  0  0  0  0  0  # atno 8724 bound_to 1997
  -35.7688  -15.7409   -5.4089 LP  0  0  0  0  0  0  0  0  0  0  0  0  # atno 8725 bound_to 1997
  -32.7350   -9.7307   -3.9190 LP  0  0  0  0  0  0  0  0  0  0  0  0  # atno 8747 bound_to 72  
  -32.3355   -8.7523   -5.1639 LP  0  0  0  0  0  0  0  0  0  0  0  0  # atno 8748 bound_to 72  
  -32.0224   -7.0612   -6.4071 LP  0  0  0  0  0  0  0  0  0  0  0  0  # atno 8749 bound_to 100 
  -32.6411   -8.4788   -5.8835 LP  0  0  0  0  0  0  0  0  0  0  0  0  # atno 8750 bound_to 100 
  -35.1462   -5.8663   -1.9827 LP  0  0  0  0  0  0  0  0  0  0  0  0  # atno 8754 bound_to 202 
  -35.0682   -7.3149   -1.2330 LP  0  0  0  0  0  0  0  0  0  0  0  0  # atno 8755 bound_to 202 
  -54.3263  -14.7823   -8.4540 LP  0  0  0  0  0  0  0  0  0  0  0  0  # atno 8775 bound_to 1065
  -53.8194  -16.1123   -7.6535 LP  0  0  0  0  0  0  0  0  0  0  0  0  # atno 8776 bound_to 1065
  -49.0492  -19.8052   -2.4773 LP  0  0  0  0  0  0  0  0  0  0  0  0  # atno 8779 bound_to 2347
  -49.0672  -20.5954   -1.0483 LP  0  0  0  0  0  0  0  0  0  0  0  0  # atno 8780 bound_to 2347
  -30.8940   -9.2851   -7.9332 LP  0  0  0  0  0  0  0  0  0  0  0  0  # atno 8787 bound_to 380 
  -31.1190   -9.5307   -9.5318 LP  0  0  0  0  0  0  0  0  0  0  0  0  # atno 8788 bound_to 380 

$$$$
