unknown|11k_best|sdf|8263|dock5
  -GOLD-   3 721 0233D 1   1.00000     0.00000

 29 31  0  0  0  0  0  0  0  0  1 V2000
  -52.9601  -15.6836  -16.4578 C   0  0  0  0  0  0  0  0  0  0  0  0
  -51.6214  -15.7804  -17.0925 C   0  0  0  0  0  0  0  0  0  0  0  0
  -50.4964  -16.0214  -16.1316 C   0  0  0  0  0  0  0  0  0  0  0  0
  -49.1411  -15.6903  -16.6834 C   0  0  0  0  0  0  0  0  0  0  0  0
  -48.8151  -14.2775  -16.5062 N   0  0  0  0  0  0  0  0  0  0  0  0
  -47.8457  -13.9394  -15.5646 C   0  0  0  0  0  0  0  0  0  0  0  0
  -47.5191  -12.7563  -15.2802 O   0  0  0  0  0  0  0  0  0  0  0  0
  -47.5598  -14.9366  -14.3434 C   0  0  2  0  0  0  0  0  0  0  0  0
  -48.1408  -13.8939  -13.2294 C   0  0  0  0  0  0  0  0  0  0  0  0
  -47.2892  -14.1071  -12.1239 N   0  0  0  0  0  0  0  0  0  0  0  0
  -46.9222  -12.7276  -11.1875 S   0  0  0  0  0  0  0  0  0  0  0  0
  -45.9193  -11.8698  -11.9269 O   0  0  0  0  0  0  0  0  0  0  0  0
  -48.1317  -11.8976  -10.9539 O   0  0  0  0  0  0  0  0  0  0  0  0
  -46.1425  -13.2565   -9.7275 C   0  0  0  0  0  0  0  0  0  0  0  0
  -44.8522  -12.8252   -9.4466 C   0  0  0  0  0  0  0  0  0  0  0  0
  -44.0750  -13.5720   -8.5939 C   0  0  0  0  0  0  0  0  0  0  0  0
  -44.6059  -14.6205   -7.8974 C   0  0  0  0  0  0  0  0  0  0  0  0
  -43.5320  -15.7703   -7.1064 Cl  0  0  0  0  0  0  0  0  0  0  0  0
  -45.9558  -14.8273   -7.9649 C   0  0  0  0  0  0  0  0  0  0  0  0
  -46.7301  -14.2114   -8.9258 C   0  0  0  0  0  0  0  0  0  0  0  0
  -46.0769  -14.7286  -12.5073 C   0  0  0  0  0  0  0  0  0  0  0  0
  -45.9695  -14.3573  -14.0913 C   0  0  1  0  0  0  0  0  0  0  0  0
  -45.3095  -15.7802  -14.4226 C   0  0  0  0  0  0  0  0  0  0  0  0
  -45.6890  -16.3702  -15.6008 C   0  0  0  0  0  0  0  0  0  0  0  0
  -44.9549  -17.4993  -15.9522 C   0  0  0  0  0  0  0  0  0  0  0  0
  -43.6859  -17.7023  -15.4249 C   0  0  0  0  0  0  0  0  0  0  0  0
  -43.0855  -18.9276  -15.4198 F   0  0  0  0  0  0  0  0  0  0  0  0
  -43.0865  -16.5888  -14.8481 C   0  0  0  0  0  0  0  0  0  0  0  0
  -43.9304  -15.6647  -14.2577 C   0  0  0  0  0  0  0  0  0  0  0  0
  1  2  1  0  0  0  0
  2  3  1  0  0  0  0
  3  4  1  0  0  0  0
  4  5  1  0  0  0  0
  5  6  1  0  0  0  0
  6  7  2  0  0  0  0
  8  6  1  0  0  0  0
  8  9  1  0  0  0  0
  9 10  1  0  0  0  0
 10 11  1  0  0  0  0
 11 12  2  0  0  0  0
 11 13  2  0  0  0  0
 11 14  1  0  0  0  0
 14 15  2  0  0  0  0
 15 16  1  0  0  0  0
 16 17  2  0  0  0  0
 17 18  1  0  0  0  0
 17 19  1  0  0  0  0
 19 20  2  0  0  0  0
 10 21  1  0  0  0  0
 21 22  1  0  0  0  0
 22 23  1  0  0  0  0
 23 24  2  0  0  0  0
 24 25  1  0  0  0  0
 25 26  2  0  0  0  0
 26 27  1  0  0  0  0
 26 28  1  0  0  0  0
 28 29  2  0  0  0  0
 22  8  1  0  0  0  0
 29 23  1  0  0  0  0
 20 14  1  0  0  0  0
M  END
>  <zinc_id>  (263) 
ZINC000245326995

>  <smiles>  (263) 
CCCCNC(=O)[C@@H]1CN(S(=O)(=O)c2ccc(Cl)cc2)C[C@H]1c1ccc(F)cc1

>  <source_line>  (263) 
263

>  <source_data>  (263) 
ZINC000245326995

>  <source_name>  (263) 


>  <source_label>  (263) 
ZINC000245326995

>  <found_by>  (263) 
ZINC

> <Gold.Version>
5.8.1

> <Gold.Id.Protein>
ID|ID_protein|mol2

> <Gold.Goldscore.Fitness>
72.1433

> <Gold.Goldscore.Internal.Vdw>
-0.5539

> <Gold.Goldscore.Internal.Torsion>
-7.0693

> <Gold.Goldscore.External.Vdw>
49.1837

> <Gold.Goldscore.Internal.HBond>
0.0000

> <Gold.Goldscore.External.HBond>
10.2534

> <Gold.Goldscore.Internal.Correction>
-1.8856

> <Gold.Goldscore.Hbonds>
donor molecule, donor type, donor heavy atom, donor atom, acceptor molecule, acceptor atom, score
      P1  H   426  4822       L1     5  0.53
      P1  H   435  4829       L1     7  0.29
      P1  H   441  4839       L1     7  0.10
      P1  H   441  4840       L1    13  0.94
      P1  H  1916  6166       L1    10  0.09

> <Gold.Goldscore.Internal.Vdw.Weighted>
-0.5539

> <Gold.Goldscore.Internal.Torsion.Weighted>
-7.0693

> <Gold.Goldscore.External.Vdw.Weighted>
67.6276

> <Gold.Goldscore.Internal.HBond.Weighted>
0.0000

> <Gold.Goldscore.External.HBond.Weighted>
10.2534

> <Gold.Goldscore.Internal.Correction.Weighted>
-1.8856

> <Gold.Protein.RotatedTorsions>
[ 4464  112  111  109 ] final  -19.59 input   60.00 | X-H torsion
[ 4839  441  440  439 ] final  114.26 input   60.00 | X-H torsion
[ 4985  758  757  756 ] final -151.61 input   60.00 | X-H torsion
[ 5271 1023 1022 1020 ] final   36.91 input   60.00 | X-H torsion
[ 6036 1776 1775 1774 ] final   78.41 input   60.00 | X-H torsion
[ 6078 1819 1818 1817 ] final   22.69 input   60.00 | X-H torsion
[ 6166 1916 1915 1913 ] final -105.06 input   60.00 | X-H torsion
[ 4818   65   64   63 ] final  145.17 input   60.00 | X-H torsion
[ 6268 1997 1996 1994 ] final  -94.87 input   60.00 | X-H torsion
[ 8592   72   71   70 ] final -148.64 input   60.00 | X-H torsion
[ 4356  100   99   97 ] final -177.60 input   60.00 | X-H torsion
[ 8510  202  201  200 ] final  -67.94 input   60.00 | X-H torsion
[ 5330 1065 1064 1063 ] final   -5.80 input   60.00 | X-H torsion
[ 6640 2347 2346 2344 ] final   97.17 input   60.00 | X-H torsion
[ 4452  380  379  378 ] final -131.43 input   60.00 | X-H torsion
[ 4500  391  390  389 ] final   11.97 input   60.00 | X-H torsion

> <Gold.Protein.ActiveResidues>
 THR8    THR9    PRO10   ILE11   TYR12   TYR13   VAL14   ASN15   ALA16   HIS19  
 HIS22   SER25   VAL29   MET46   THR47   GLY48   THR49   ASP50   GLU51   HIS52  
 GLY53   GLN54   LYS55   VAL56   ALA57   GLU58   THR71   PHE78   ILE93   THR95  
 THR96   HIS100  GLU101  VAL104  TRP108  TYR126  VAL128  SER129  ASP130  GLU131 
 SER132  LEU210  SER211  ILE212  SER213  ARG214  LYS215  ARG216  SER218  VAL219 
 MET220  ASN221  TRP222  SER223  ILE224  PRO225  VAL226  HIS232  CYS233  ILE234 
 TYR235  VAL236  TRP237  LEU238  ASP239  ALA240  LEU241  PHE242  ASN243  TYR244 
 TYR245  THR246  HIS275  VAL276  VAL277  GLY278  LYS279  ASP280  ILE281  LEU282 
 LYS283  PHE284  HIS285  ALA286  ILE287  TYR288  TRP289  PRO290  PHE292  LEU304 
 TRP309 

> <Gold.Protein.RotatedAtoms>
  -31.9401   -7.4767   -6.4949 H   0  0  0  0  0  0  0  0  0  0  0  0  # atno 4356 bound_to 100 
  -30.4280   -8.4166   -9.4640 H   0  0  0  0  0  0  0  0  0  0  0  0  # atno 4452 bound_to 380 
  -44.7949  -11.7063  -16.2731 H   0  0  0  0  0  0  0  0  0  0  0  0  # atno 4464 bound_to 112 
  -34.5217  -11.3643  -15.9572 H   0  0  0  0  0  0  0  0  0  0  0  0  # atno 4500 bound_to 391 
  -31.7254  -16.1267   -3.9204 H   0  0  0  0  0  0  0  0  0  0  0  0  # atno 4818 bound_to 65  
  -47.9924  -11.3804  -14.3186 H   0  0  0  0  0  0  0  0  0  0  0  0  # atno 4839 bound_to 441 
  -48.4797  -11.4077  -12.7346 H   0  0  0  0  0  0  0  0  0  0  0  0  # atno 4840 bound_to 441 
  -49.5038  -10.8387  -13.9071 H   0  0  0  0  0  0  0  0  0  0  0  0  # atno 4841 bound_to 441 
  -38.7345  -17.2355  -16.4254 H   0  0  0  0  0  0  0  0  0  0  0  0  # atno 4985 bound_to 758 
  -54.2407  -17.8789  -14.1838 H   0  0  0  0  0  0  0  0  0  0  0  0  # atno 5271 bound_to 1023
  -53.8890  -15.6453   -8.4326 H   0  0  0  0  0  0  0  0  0  0  0  0  # atno 5330 bound_to 1065
  -55.1457  -16.6684  -18.1914 H   0  0  0  0  0  0  0  0  0  0  0  0  # atno 6036 bound_to 1776
  -45.2970  -16.9926  -19.6858 H   0  0  0  0  0  0  0  0  0  0  0  0  # atno 6078 bound_to 1819
  -48.8720  -15.1476  -11.3056 H   0  0  0  0  0  0  0  0  0  0  0  0  # atno 6166 bound_to 1916
  -34.9402  -15.7179   -3.9248 H   0  0  0  0  0  0  0  0  0  0  0  0  # atno 6268 bound_to 1997
  -48.9978  -20.3826   -1.0925 H   0  0  0  0  0  0  0  0  0  0  0  0  # atno 6640 bound_to 2347
  -35.0363   -7.2237   -1.1954 H   0  0  0  0  0  0  0  0  0  0  0  0  # atno 8510 bound_to 202 
  -32.1082   -8.6007   -5.0982 H   0  0  0  0  0  0  0  0  0  0  0  0  # atno 8592 bound_to 72  
  -45.5208  -10.2728  -16.5308 LP  0  0  0  0  0  0  0  0  0  0  0  0  # atno 8618 bound_to 112 
  -46.0964  -11.2893  -15.3897 LP  0  0  0  0  0  0  0  0  0  0  0  0  # atno 8619 bound_to 112 
  -37.5259  -18.0815  -15.7388 LP  0  0  0  0  0  0  0  0  0  0  0  0  # atno 8637 bound_to 758 
  -37.5562  -17.8620  -17.3566 LP  0  0  0  0  0  0  0  0  0  0  0  0  # atno 8638 bound_to 758 
  -54.5222  -16.3596  -13.6732 LP  0  0  0  0  0  0  0  0  0  0  0  0  # atno 8642 bound_to 1023
  -54.7083  -16.7418  -15.2499 LP  0  0  0  0  0  0  0  0  0  0  0  0  # atno 8643 bound_to 1023
  -53.5674  -16.2943  -18.3220 LP  0  0  0  0  0  0  0  0  0  0  0  0  # atno 8662 bound_to 1776
  -54.0375  -17.5490  -17.3885 LP  0  0  0  0  0  0  0  0  0  0  0  0  # atno 8663 bound_to 1776
  -45.0924  -17.7727  -18.2725 LP  0  0  0  0  0  0  0  0  0  0  0  0  # atno 8672 bound_to 1819
  -46.5039  -17.9028  -19.0833 LP  0  0  0  0  0  0  0  0  0  0  0  0  # atno 8673 bound_to 1819
  -50.2672  -15.8099  -10.7931 LP  0  0  0  0  0  0  0  0  0  0  0  0  # atno 8684 bound_to 1916
  -50.1232  -15.2938  -12.3357 LP  0  0  0  0  0  0  0  0  0  0  0  0  # atno 8685 bound_to 1916
  -31.0134  -15.1126   -2.8655 LP  0  0  0  0  0  0  0  0  0  0  0  0  # atno 8712 bound_to 65  
  -30.5335  -16.6709   -2.9554 LP  0  0  0  0  0  0  0  0  0  0  0  0  # atno 8713 bound_to 65  
  -35.8263  -15.8199   -5.2859 LP  0  0  0  0  0  0  0  0  0  0  0  0  # atno 8724 bound_to 1997
  -34.4505  -14.9404   -5.2678 LP  0  0  0  0  0  0  0  0  0  0  0  0  # atno 8725 bound_to 1997
  -31.5516   -8.9121   -3.6011 LP  0  0  0  0  0  0  0  0  0  0  0  0  # atno 8747 bound_to 72  
  -32.8609   -9.7050   -4.1700 LP  0  0  0  0  0  0  0  0  0  0  0  0  # atno 8748 bound_to 72  
  -32.9537   -8.3808   -5.5986 LP  0  0  0  0  0  0  0  0  0  0  0  0  # atno 8749 bound_to 100 
  -33.0104   -6.7513   -5.5068 LP  0  0  0  0  0  0  0  0  0  0  0  0  # atno 8750 bound_to 100 
  -35.6572   -7.3010   -2.6975 LP  0  0  0  0  0  0  0  0  0  0  0  0  # atno 8754 bound_to 202 
  -35.1850   -5.8654   -2.0790 LP  0  0  0  0  0  0  0  0  0  0  0  0  # atno 8755 bound_to 202 
  -54.1923  -15.7420   -6.8368 LP  0  0  0  0  0  0  0  0  0  0  0  0  # atno 8775 bound_to 1065
  -54.6774  -14.4337   -7.6852 LP  0  0  0  0  0  0  0  0  0  0  0  0  # atno 8776 bound_to 1065
  -49.5715  -21.4354   -2.1927 LP  0  0  0  0  0  0  0  0  0  0  0  0  # atno 8779 bound_to 2347
  -49.1258  -19.9328   -2.6511 LP  0  0  0  0  0  0  0  0  0  0  0  0  # atno 8780 bound_to 2347
  -30.6265   -8.8519   -7.9086 LP  0  0  0  0  0  0  0  0  0  0  0  0  # atno 8787 bound_to 380 
  -31.2491   -9.7745   -9.1036 LP  0  0  0  0  0  0  0  0  0  0  0  0  # atno 8788 bound_to 380 

$$$$
