unknown|11k_best|sdf|2364|dock3
  -GOLD-   3 12120163D 1   1.00000     0.00000

 30 32  0  0  0  0  0  0  0  0  1 V2000
  -43.1464  -18.4135  -17.0031 C   0  0  0  0  0  0  0  0  0  0  0  0
  -44.4871  -18.2451  -16.5707 O   0  0  0  0  0  0  0  0  0  0  0  0
  -44.8622  -17.3425  -15.5885 C   0  0  0  0  0  0  0  0  0  0  0  0
  -46.1933  -17.3267  -15.1988 C   0  0  0  0  0  0  0  0  0  0  0  0
  -46.6774  -16.2052  -14.5482 C   0  0  0  0  0  0  0  0  0  0  0  0
  -45.7825  -15.2977  -13.9952 C   0  0  0  0  0  0  0  0  0  0  0  0
  -46.4982  -13.9665  -13.0991 S   0  0  0  0  0  0  0  0  0  0  0  0
  -46.0767  -12.6478  -13.7089 O   0  0  0  0  0  0  0  0  0  0  0  0
  -47.9947  -14.1189  -13.1149 O   0  0  0  0  0  0  0  0  0  0  0  0
  -45.8938  -13.9862  -11.4961 N   0  0  0  0  0  0  0  0  0  0  0  0
  -46.7358  -13.9053  -10.3384 C   0  0  0  0  0  0  0  0  0  0  0  0
  -46.3627  -13.7158   -9.0479 N   0  0  0  0  0  0  0  0  0  0  0  0
  -47.2961  -14.1480   -8.1976 C   0  0  0  0  0  0  0  0  0  0  0  0
  -47.0087  -14.7217   -6.8433 C   0  0  0  0  0  0  0  0  0  0  0  0
  -45.5444  -14.6301   -6.5506 C   0  0  0  0  0  0  0  0  0  0  0  0
  -45.1321  -13.7728   -5.7207 O   0  0  0  0  0  0  0  0  0  0  0  0
  -44.6579  -15.6373   -6.9954 N   0  0  0  0  0  0  0  0  0  0  0  0
  -43.2878  -15.6901   -6.5825 C   0  0  0  0  0  0  0  0  0  0  0  0
  -42.4208  -16.6163   -7.1497 C   0  0  0  0  0  0  0  0  0  0  0  0
  -41.0586  -16.3452   -7.1329 C   0  0  0  0  0  0  0  0  0  0  0  0
  -40.5485  -15.1324   -6.7089 C   0  0  0  0  0  0  0  0  0  0  0  0
  -39.4098  -14.4673   -7.4159 C   0  0  0  0  0  0  0  0  0  0  0  0
  -38.2590  -15.4634   -7.4562 C   0  0  0  0  0  0  0  0  0  0  0  0
  -37.0743  -14.9182   -6.9937 O   0  0  0  0  0  0  0  0  0  0  0  0
  -41.4104  -14.3377   -5.9637 C   0  0  0  0  0  0  0  0  0  0  0  0
  -42.7413  -14.6780   -5.8088 C   0  0  0  0  0  0  0  0  0  0  0  0
  -48.5450  -13.6159   -8.5073 C   0  0  0  0  0  0  0  0  0  0  0  0
  -48.4066  -13.5227  -10.2189 S   0  0  0  0  0  0  0  0  0  0  0  0
  -44.4211  -15.4028  -14.2011 C   0  0  0  0  0  0  0  0  0  0  0  0
  -43.9987  -16.4963  -14.9467 C   0  0  0  0  0  0  0  0  0  0  0  0
  1  2  1  0  0  0  0
  2  3  1  0  0  0  0
  3  4  2  0  0  0  0
  4  5  1  0  0  0  0
  5  6  2  0  0  0  0
  6  7  1  0  0  0  0
  7  8  2  0  0  0  0
  7  9  2  0  0  0  0
  7 10  1  0  0  0  0
 10 11  1  0  0  0  0
 11 12  2  0  0  0  0
 12 13  1  0  0  0  0
 13 14  1  0  0  0  0
 14 15  1  0  0  0  0
 15 16  2  0  0  0  0
 15 17  1  0  0  0  0
 17 18  1  0  0  0  0
 18 19  2  0  0  0  0
 19 20  1  0  0  0  0
 20 21  2  0  0  0  0
 21 22  1  0  0  0  0
 22 23  1  0  0  0  0
 23 24  1  0  0  0  0
 21 25  1  0  0  0  0
 25 26  2  0  0  0  0
 13 27  2  0  0  0  0
 27 28  1  0  0  0  0
  6 29  1  0  0  0  0
 29 30  2  0  0  0  0
 30  3  1  0  0  0  0
 28 11  1  0  0  0  0
 26 18  1  0  0  0  0
M  END
>  <zinc_id>  (364) 
ZINC000013727648

>  <smiles>  (364) 
COc1ccc(S(=O)(=O)Nc2nc(CC(=O)Nc3ccc(CCO)cc3)cs2)cc1

>  <source_line>  (364) 
364

>  <source_data>  (364) 
ZINC000013727648

>  <source_name>  (364) 


>  <source_label>  (364) 
ZINC000013727648

>  <found_by>  (364) 
ZINC

> <Gold.Version>
5.8.1

> <Gold.Id.Protein>
ID|ID_protein|mol2

> <Gold.Goldscore.Fitness>
95.5148

> <Gold.Goldscore.Internal.Vdw>
1.6278

> <Gold.Goldscore.Internal.Torsion>
-4.9818

> <Gold.Goldscore.External.Vdw>
53.8971

> <Gold.Goldscore.Internal.HBond>
0.0000

> <Gold.Goldscore.External.HBond>
22.3541

> <Gold.Goldscore.Internal.Correction>
-2.4062

> <Gold.Goldscore.Hbonds>
donor molecule, donor type, donor heavy atom, donor atom, acceptor molecule, acceptor atom, score
      P1  H   112  4464       L1     8  0.24
      P1  H   441  4839       L1     8  1.00
      P1  H  1819  6078       L1     2  1.00
      P1  H  1916  6166       L1     9  0.94
      P1  H    83  8591       L1    24  1.00
      P1  H  1997  6268       L1    24  1.00

> <Gold.Goldscore.Internal.Vdw.Weighted>
1.6278

> <Gold.Goldscore.Internal.Torsion.Weighted>
-4.9818

> <Gold.Goldscore.External.Vdw.Weighted>
74.1085

> <Gold.Goldscore.Internal.HBond.Weighted>
0.0000

> <Gold.Goldscore.External.HBond.Weighted>
22.3541

> <Gold.Goldscore.Internal.Correction.Weighted>
-2.4062

> <Gold.Protein.RotatedTorsions>
[ 4464  112  111  109 ] final   61.69 input   60.00 | X-H torsion
[ 4839  441  440  439 ] final  154.99 input   60.00 | X-H torsion
[ 4985  758  757  756 ] final  142.13 input   60.00 | X-H torsion
[ 5271 1023 1022 1020 ] final  177.15 input   60.00 | X-H torsion
[ 6036 1776 1775 1774 ] final  -14.15 input   60.00 | X-H torsion
[ 6078 1819 1818 1817 ] final -107.43 input   60.00 | X-H torsion
[ 6166 1916 1915 1913 ] final  -49.13 input   60.00 | X-H torsion
[ 4818   65   64   63 ] final  -88.46 input   60.00 | X-H torsion
[ 6268 1997 1996 1994 ] final  110.23 input   60.00 | X-H torsion
[ 8592   72   71   70 ] final   -9.68 input   60.00 | X-H torsion
[ 4356  100   99   97 ] final  -59.25 input   60.00 | X-H torsion
[ 8510  202  201  200 ] final -175.33 input   60.00 | X-H torsion
[ 5330 1065 1064 1063 ] final  -59.06 input   60.00 | X-H torsion
[ 6640 2347 2346 2344 ] final -112.85 input   60.00 | X-H torsion
[ 4452  380  379  378 ] final  -12.05 input   60.00 | X-H torsion
[ 4500  391  390  389 ] final   77.93 input   60.00 | X-H torsion

> <Gold.Protein.ActiveResidues>
 THR8    THR9    PRO10   ILE11   TYR12   TYR13   VAL14   ASN15   ALA16   HIS19  
 HIS22   SER25   VAL29   MET46   THR47   GLY48   THR49   ASP50   GLU51   HIS52  
 GLY53   GLN54   LYS55   VAL56   ALA57   GLU58   THR71   PHE78   ILE93   THR95  
 THR96   HIS100  GLU101  VAL104  TRP108  TYR126  VAL128  SER129  ASP130  GLU131 
 SER132  LEU210  SER211  ILE212  SER213  ARG214  LYS215  ARG216  SER218  VAL219 
 MET220  ASN221  TRP222  SER223  ILE224  PRO225  VAL226  HIS232  CYS233  ILE234 
 TYR235  VAL236  TRP237  LEU238  ASP239  ALA240  LEU241  PHE242  ASN243  TYR244 
 TYR245  THR246  HIS275  VAL276  VAL277  GLY278  LYS279  ASP280  ILE281  LEU282 
 LYS283  PHE284  HIS285  ALA286  ILE287  TYR288  TRP289  PRO290  PHE292  LEU304 
 TRP309 

> <Gold.Protein.RotatedAtoms>
  -32.9924   -6.7422   -5.5261 H   0  0  0  0  0  0  0  0  0  0  0  0  # atno 4356 bound_to 100 
  -31.2424   -9.7676   -9.1115 H   0  0  0  0  0  0  0  0  0  0  0  0  # atno 4452 bound_to 380 
  -45.6924  -11.7596  -15.4490 H   0  0  0  0  0  0  0  0  0  0  0  0  # atno 4464 bound_to 112 
  -35.2968  -11.0058  -16.5136 H   0  0  0  0  0  0  0  0  0  0  0  0  # atno 4500 bound_to 391 
  -30.4937  -16.5965   -2.8935 H   0  0  0  0  0  0  0  0  0  0  0  0  # atno 4818 bound_to 65  
  -47.7679  -11.5533  -13.7158 H   0  0  0  0  0  0  0  0  0  0  0  0  # atno 4839 bound_to 441 
  -49.0925  -11.1554  -12.8021 H   0  0  0  0  0  0  0  0  0  0  0  0  # atno 4840 bound_to 441 
  -49.1155  -10.9181  -14.4424 H   0  0  0  0  0  0  0  0  0  0  0  0  # atno 4841 bound_to 441 
  -38.2439  -17.6425  -15.6248 H   0  0  0  0  0  0  0  0  0  0  0  0  # atno 4985 bound_to 758 
  -54.7522  -16.4572  -15.0882 H   0  0  0  0  0  0  0  0  0  0  0  0  # atno 5271 bound_to 1023
  -53.8126  -16.0977   -7.7297 H   0  0  0  0  0  0  0  0  0  0  0  0  # atno 5330 bound_to 1065
  -53.9431  -16.1267  -18.4938 H   0  0  0  0  0  0  0  0  0  0  0  0  # atno 6036 bound_to 1776
  -45.2254  -17.8619  -18.2292 H   0  0  0  0  0  0  0  0  0  0  0  0  # atno 6078 bound_to 1819
  -49.1905  -15.0214  -12.1141 H   0  0  0  0  0  0  0  0  0  0  0  0  # atno 6166 bound_to 1916
  -35.5245  -15.5061   -5.6436 H   0  0  0  0  0  0  0  0  0  0  0  0  # atno 6268 bound_to 1997
  -49.3027  -20.3267   -2.8742 H   0  0  0  0  0  0  0  0  0  0  0  0  # atno 6640 bound_to 2347
  -35.6252   -7.4561   -2.5651 H   0  0  0  0  0  0  0  0  0  0  0  0  # atno 8510 bound_to 202 
  -32.7139   -9.7271   -3.8986 H   0  0  0  0  0  0  0  0  0  0  0  0  # atno 8592 bound_to 72  
  -44.7327  -11.2082  -16.6419 LP  0  0  0  0  0  0  0  0  0  0  0  0  # atno 8618 bound_to 112 
  -45.9807  -10.3002  -16.1085 LP  0  0  0  0  0  0  0  0  0  0  0  0  # atno 8619 bound_to 112 
  -37.1477  -18.2009  -16.6900 LP  0  0  0  0  0  0  0  0  0  0  0  0  # atno 8637 bound_to 758 
  -38.4286  -17.3327  -17.2116 LP  0  0  0  0  0  0  0  0  0  0  0  0  # atno 8638 bound_to 758 
  -54.2895  -17.9060  -14.5094 LP  0  0  0  0  0  0  0  0  0  0  0  0  # atno 8642 bound_to 1023
  -54.4260  -16.6272  -13.5030 LP  0  0  0  0  0  0  0  0  0  0  0  0  # atno 8643 bound_to 1023
  -53.6399  -17.3699  -17.4885 LP  0  0  0  0  0  0  0  0  0  0  0  0  # atno 8662 bound_to 1776
  -55.1760  -17.0189  -17.9174 LP  0  0  0  0  0  0  0  0  0  0  0  0  # atno 8663 bound_to 1776
  -46.5109  -17.8177  -19.2260 LP  0  0  0  0  0  0  0  0  0  0  0  0  # atno 8672 bound_to 1819
  -45.1575  -16.9824  -19.5967 LP  0  0  0  0  0  0  0  0  0  0  0  0  # atno 8673 bound_to 1819
  -49.4397  -15.5647  -10.6006 LP  0  0  0  0  0  0  0  0  0  0  0  0  # atno 8684 bound_to 1916
  -50.6300  -15.6662  -11.7140 LP  0  0  0  0  0  0  0  0  0  0  0  0  # atno 8685 bound_to 1916
  -31.6968  -16.2271   -3.9252 LP  0  0  0  0  0  0  0  0  0  0  0  0  # atno 8712 bound_to 65  
  -31.0906  -15.0831   -2.9299 LP  0  0  0  0  0  0  0  0  0  0  0  0  # atno 8713 bound_to 65  
  -34.2698  -15.0059   -4.7361 LP  0  0  0  0  0  0  0  0  0  0  0  0  # atno 8724 bound_to 1997
  -35.4186  -15.9677   -4.0867 LP  0  0  0  0  0  0  0  0  0  0  0  0  # atno 8725 bound_to 1997
  -32.3581   -8.7701   -5.1657 LP  0  0  0  0  0  0  0  0  0  0  0  0  # atno 8747 bound_to 72  
  -31.4444   -8.7127   -3.8135 LP  0  0  0  0  0  0  0  0  0  0  0  0  # atno 8748 bound_to 72  
  -31.9330   -7.5034   -6.4988 LP  0  0  0  0  0  0  0  0  0  0  0  0  # atno 8749 bound_to 100 
  -32.9714   -8.3684   -5.5823 LP  0  0  0  0  0  0  0  0  0  0  0  0  # atno 8750 bound_to 100 
  -35.2658   -5.8972   -2.2670 LP  0  0  0  0  0  0  0  0  0  0  0  0  # atno 8754 bound_to 202 
  -34.9833   -7.0351   -1.1302 LP  0  0  0  0  0  0  0  0  0  0  0  0  # atno 8755 bound_to 202 
  -54.5829  -14.9926   -6.8168 LP  0  0  0  0  0  0  0  0  0  0  0  0  # atno 8775 bound_to 1065
  -54.3637  -14.7275   -8.4131 LP  0  0  0  0  0  0  0  0  0  0  0  0  # atno 8776 bound_to 1065
  -48.9010  -19.9740   -1.3373 LP  0  0  0  0  0  0  0  0  0  0  0  0  # atno 8779 bound_to 2347
  -49.4892  -21.4505   -1.7122 LP  0  0  0  0  0  0  0  0  0  0  0  0  # atno 8780 bound_to 2347
  -30.4237   -8.4054   -9.4608 LP  0  0  0  0  0  0  0  0  0  0  0  0  # atno 8787 bound_to 380 
  -30.6317   -8.8605   -7.9064 LP  0  0  0  0  0  0  0  0  0  0  0  0  # atno 8788 bound_to 380 

$$$$
