unknown|11k_best|sdf|8317|dock1
  -GOLD-   3 721 1323D 1   1.00000     0.00000

 30 33  0  0  0  0  0  0  0  0  1 V2000
  -44.8506  -14.0708  -13.5757 O   0  0  0  0  0  0  0  0  0  0  0  0
  -45.6155  -13.2769  -12.9826 C   0  0  0  0  0  0  0  0  0  0  0  0
  -46.7596  -12.8375  -13.6765 N   0  0  0  0  0  0  0  0  0  0  0  0
  -47.1815  -13.3812  -14.9343 C   0  0  0  0  0  0  0  0  0  0  0  0
  -48.3262  -13.0009  -15.5539 N   0  0  0  0  0  0  0  0  0  0  0  0
  -48.9568  -14.0596  -16.0440 N   0  0  0  0  0  0  0  0  0  0  0  0
  -48.1054  -15.0753  -15.9047 C   0  0  0  0  0  0  0  0  0  0  0  0
  -48.1133  -16.3193  -16.6845 C   0  0  0  0  0  0  0  0  0  0  0  0
  -47.0480  -17.1824  -16.6028 C   0  0  0  0  0  0  0  0  0  0  0  0
  -47.0974  -18.5009  -17.0019 C   0  0  0  0  0  0  0  0  0  0  0  0
  -48.3615  -19.0678  -17.0751 C   0  0  0  0  0  0  0  0  0  0  0  0
  -49.4786  -18.2603  -17.0932 C   0  0  0  0  0  0  0  0  0  0  0  0
  -49.3263  -16.8794  -17.0678 C   0  0  0  0  0  0  0  0  0  0  0  0
  -47.1345  -14.6896  -15.1292 O   0  0  0  0  0  0  0  0  0  0  0  0
  -45.1169  -12.5871  -11.7828 C   0  0  0  0  0  0  0  0  0  0  0  0
  -45.9312  -11.6763  -11.1182 C   0  0  0  0  0  0  0  0  0  0  0  0
  -45.3374  -10.5482  -10.5628 C   0  0  0  0  0  0  0  0  0  0  0  0
  -43.9508  -10.5008  -10.4704 C   0  0  0  0  0  0  0  0  0  0  0  0
  -43.1611  -11.6217  -10.7051 C   0  0  0  0  0  0  0  0  0  0  0  0
  -42.1190  -11.9041   -9.7576 N   0  0  0  0  0  0  0  0  0  0  0  0
  -41.5309  -13.1899   -9.6261 C   0  0  0  0  0  0  0  0  0  0  0  0
  -42.1929  -14.1395  -10.1456 O   0  0  0  0  0  0  0  0  0  0  0  0
  -40.6136  -13.5530   -8.5362 C   0  0  0  0  0  0  0  0  0  0  0  0
  -40.5268  -12.7633   -7.3958 C   0  0  0  0  0  0  0  0  0  0  0  0
  -40.3833  -13.3176   -6.1292 C   0  0  0  0  0  0  0  0  0  0  0  0
  -40.4454  -14.6801   -5.9550 C   0  0  0  0  0  0  0  0  0  0  0  0
  -41.1665  -15.4172   -4.5315 Cl  0  0  0  0  0  0  0  0  0  0  0  0
  -40.2504  -15.4596   -7.0735 C   0  0  0  0  0  0  0  0  0  0  0  0
  -40.2914  -14.8919   -8.3413 C   0  0  0  0  0  0  0  0  0  0  0  0
  -43.7713  -12.6316  -11.4391 C   0  0  0  0  0  0  0  0  0  0  0  0
  1  2  2  0  0  0  0
  2  3  1  0  0  0  0
  3  4  1  0  0  0  0
  4  5  2  0  0  0  0
  5  6  1  0  0  0  0
  6  7  2  0  0  0  0
  7  8  1  0  0  0  0
  8  9  2  0  0  0  0
  9 10  1  0  0  0  0
 10 11  2  0  0  0  0
 11 12  1  0  0  0  0
 12 13  2  0  0  0  0
  7 14  1  0  0  0  0
  2 15  1  0  0  0  0
 15 16  2  0  0  0  0
 16 17  1  0  0  0  0
 17 18  2  0  0  0  0
 18 19  1  0  0  0  0
 19 20  1  0  0  0  0
 20 21  1  0  0  0  0
 21 22  2  0  0  0  0
 21 23  1  0  0  0  0
 23 24  2  0  0  0  0
 24 25  1  0  0  0  0
 25 26  2  0  0  0  0
 26 27  1  0  0  0  0
 26 28  1  0  0  0  0
 28 29  2  0  0  0  0
 19 30  2  0  0  0  0
 14  4  1  0  0  0  0
 30 15  1  0  0  0  0
 13  8  1  0  0  0  0
 29 23  1  0  0  0  0
M  END
>  <zinc_id>  (317) 
ZINC000009062100

>  <smiles>  (317) 
O=C(Nc1cccc(C(=O)Nc2nnc(-c3ccccc3)o2)c1)c1ccc(Cl)cc1

>  <source_line>  (317) 
317

>  <source_data>  (317) 
ZINC000009062100

>  <source_name>  (317) 


>  <source_label>  (317) 
ZINC000009062100

>  <found_by>  (317) 
ZINC

> <Gold.Version>
5.8.1

> <Gold.Id.Protein>
ID|ID_protein|mol2

> <Gold.Goldscore.Fitness>
75.4607

> <Gold.Goldscore.Internal.Vdw>
0.6883

> <Gold.Goldscore.Internal.Torsion>
-11.1001

> <Gold.Goldscore.External.Vdw>
48.9403

> <Gold.Goldscore.Internal.HBond>
0.0000

> <Gold.Goldscore.External.HBond>
9.9360

> <Gold.Goldscore.Internal.Correction>
-8.6436

> <Gold.Goldscore.Hbonds>
donor molecule, donor type, donor heavy atom, donor atom, acceptor molecule, acceptor atom, score
      P1  H   426  4822       L1     6  0.08
      P1  H   435  4829       L1     5  0.21
      P1  H   441  4839       L1     3  0.94

> <Gold.Goldscore.Internal.Vdw.Weighted>
0.6883

> <Gold.Goldscore.Internal.Torsion.Weighted>
-11.1001

> <Gold.Goldscore.External.Vdw.Weighted>
67.2929

> <Gold.Goldscore.Internal.HBond.Weighted>
0.0000

> <Gold.Goldscore.External.HBond.Weighted>
9.9360

> <Gold.Goldscore.Internal.Correction.Weighted>
-8.6436

> <Gold.Protein.RotatedTorsions>
[ 4464  112  111  109 ] final  -56.45 input   60.00 | X-H torsion
[ 4839  441  440  439 ] final  157.03 input   60.00 | X-H torsion
[ 4985  758  757  756 ] final  114.81 input   60.00 | X-H torsion
[ 5271 1023 1022 1020 ] final -154.90 input   60.00 | X-H torsion
[ 6036 1776 1775 1774 ] final  -62.60 input   60.00 | X-H torsion
[ 6078 1819 1818 1817 ] final   78.48 input   60.00 | X-H torsion
[ 6166 1916 1915 1913 ] final  -70.20 input   60.00 | X-H torsion
[ 4818   65   64   63 ] final -169.21 input   60.00 | X-H torsion
[ 6268 1997 1996 1994 ] final  -15.56 input   60.00 | X-H torsion
[ 8592   72   71   70 ] final   -6.58 input   60.00 | X-H torsion
[ 4356  100   99   97 ] final -136.37 input   60.00 | X-H torsion
[ 8510  202  201  200 ] final -125.83 input   60.00 | X-H torsion
[ 5330 1065 1064 1063 ] final   62.40 input   60.00 | X-H torsion
[ 6640 2347 2346 2344 ] final -135.83 input   60.00 | X-H torsion
[ 4452  380  379  378 ] final -173.32 input   60.00 | X-H torsion
[ 4500  391  390  389 ] final -151.45 input   60.00 | X-H torsion

> <Gold.Protein.ActiveResidues>
 THR8    THR9    PRO10   ILE11   TYR12   TYR13   VAL14   ASN15   ALA16   HIS19  
 HIS22   SER25   VAL29   MET46   THR47   GLY48   THR49   ASP50   GLU51   HIS52  
 GLY53   GLN54   LYS55   VAL56   ALA57   GLU58   THR71   PHE78   ILE93   THR95  
 THR96   HIS100  GLU101  VAL104  TRP108  TYR126  VAL128  SER129  ASP130  GLU131 
 SER132  LEU210  SER211  ILE212  SER213  ARG214  LYS215  ARG216  SER218  VAL219 
 MET220  ASN221  TRP222  SER223  ILE224  PRO225  VAL226  HIS232  CYS233  ILE234 
 TYR235  VAL236  TRP237  LEU238  ASP239  ALA240  LEU241  PHE242  ASN243  TYR244 
 TYR245  THR246  HIS275  VAL276  VAL277  GLY278  LYS279  ASP280  ILE281  LEU282 
 LYS283  PHE284  HIS285  ALA286  ILE287  TYR288  TRP289  PRO290  PHE292  LEU304 
 TRP309 

> <Gold.Protein.RotatedAtoms>
  -32.1337   -6.8757   -6.3051 H   0  0  0  0  0  0  0  0  0  0  0  0  # atno 4356 bound_to 100 
  -30.2760   -8.2160   -8.8438 H   0  0  0  0  0  0  0  0  0  0  0  0  # atno 4452 bound_to 380 
  -44.7316  -11.2336  -16.6236 H   0  0  0  0  0  0  0  0  0  0  0  0  # atno 4464 bound_to 112 
  -34.2204   -9.7055  -16.7257 H   0  0  0  0  0  0  0  0  0  0  0  0  # atno 4500 bound_to 391 
  -31.3382  -16.7181   -3.7557 H   0  0  0  0  0  0  0  0  0  0  0  0  # atno 4818 bound_to 65  
  -47.7680  -11.5579  -13.6820 H   0  0  0  0  0  0  0  0  0  0  0  0  # atno 4839 bound_to 441 
  -49.1198  -11.1424  -12.8176 H   0  0  0  0  0  0  0  0  0  0  0  0  # atno 4840 bound_to 441 
  -49.0880  -10.9265  -14.4606 H   0  0  0  0  0  0  0  0  0  0  0  0  # atno 4841 bound_to 441 
  -37.8729  -17.8800  -15.5859 H   0  0  0  0  0  0  0  0  0  0  0  0  # atno 4985 bound_to 758 
  -54.7584  -16.1764  -14.7339 H   0  0  0  0  0  0  0  0  0  0  0  0  # atno 5271 bound_to 1023
  -54.3762  -14.7163   -8.3946 H   0  0  0  0  0  0  0  0  0  0  0  0  # atno 5330 bound_to 1065
  -53.3880  -16.5168  -18.1330 H   0  0  0  0  0  0  0  0  0  0  0  0  # atno 6036 bound_to 1776
  -46.1119  -17.3009  -19.7771 H   0  0  0  0  0  0  0  0  0  0  0  0  # atno 6078 bound_to 1819
  -48.9827  -15.0269  -11.8421 H   0  0  0  0  0  0  0  0  0  0  0  0  # atno 6166 bound_to 1916
  -34.2719  -15.0404   -4.6475 H   0  0  0  0  0  0  0  0  0  0  0  0  # atno 6268 bound_to 1997
  -49.1652  -20.0165   -2.7191 H   0  0  0  0  0  0  0  0  0  0  0  0  # atno 6640 bound_to 2347
  -35.3848   -7.7214   -1.8677 H   0  0  0  0  0  0  0  0  0  0  0  0  # atno 8510 bound_to 202 
  -32.6848   -9.7243   -3.8572 H   0  0  0  0  0  0  0  0  0  0  0  0  # atno 8592 bound_to 72  
  -45.9624  -10.2902  -16.1308 LP  0  0  0  0  0  0  0  0  0  0  0  0  # atno 8618 bound_to 112 
  -45.7186  -11.7480  -15.4366 LP  0  0  0  0  0  0  0  0  0  0  0  0  # atno 8619 bound_to 112 
  -37.2842  -18.0654  -17.0916 LP  0  0  0  0  0  0  0  0  0  0  0  0  # atno 8637 bound_to 758 
  -38.6656  -17.2290  -16.8492 LP  0  0  0  0  0  0  0  0  0  0  0  0  # atno 8638 bound_to 758 
  -54.4009  -17.7526  -14.9234 LP  0  0  0  0  0  0  0  0  0  0  0  0  # atno 8642 bound_to 1023
  -54.3083  -17.0633  -13.4459 LP  0  0  0  0  0  0  0  0  0  0  0  0  # atno 8643 bound_to 1023
  -54.3798  -17.5785  -17.3999 LP  0  0  0  0  0  0  0  0  0  0  0  0  # atno 8662 bound_to 1776
  -54.9950  -16.4174  -18.3694 LP  0  0  0  0  0  0  0  0  0  0  0  0  # atno 8663 bound_to 1776
  -44.7511  -17.2396  -18.8870 LP  0  0  0  0  0  0  0  0  0  0  0  0  # atno 8672 bound_to 1819
  -46.0246  -18.1254  -18.3769 LP  0  0  0  0  0  0  0  0  0  0  0  0  # atno 8673 bound_to 1819
  -49.7601  -15.6896  -10.5754 LP  0  0  0  0  0  0  0  0  0  0  0  0  # atno 8684 bound_to 1916
  -50.5189  -15.5356  -12.0131 LP  0  0  0  0  0  0  0  0  0  0  0  0  # atno 8685 bound_to 1916
  -31.5316  -15.1466   -3.3800 LP  0  0  0  0  0  0  0  0  0  0  0  0  # atno 8712 bound_to 65  
  -30.4054  -16.0413   -2.6068 LP  0  0  0  0  0  0  0  0  0  0  0  0  # atno 8713 bound_to 65  
  -35.4902  -15.9943   -4.1437 LP  0  0  0  0  0  0  0  0  0  0  0  0  # atno 8724 bound_to 1997
  -35.4596  -15.4483   -5.6823 LP  0  0  0  0  0  0  0  0  0  0  0  0  # atno 8725 bound_to 1997
  -32.3977   -8.8023   -5.1670 LP  0  0  0  0  0  0  0  0  0  0  0  0  # atno 8747 bound_to 72  
  -31.4342   -8.6832   -3.8539 LP  0  0  0  0  0  0  0  0  0  0  0  0  # atno 8748 bound_to 72  
  -32.4643   -8.4472   -6.0424 LP  0  0  0  0  0  0  0  0  0  0  0  0  # atno 8749 bound_to 100 
  -33.3049   -7.2902   -5.2542 LP  0  0  0  0  0  0  0  0  0  0  0  0  # atno 8750 bound_to 100 
  -35.5591   -6.3995   -2.8006 LP  0  0  0  0  0  0  0  0  0  0  0  0  # atno 8754 bound_to 202 
  -34.9321   -6.2656   -1.2988 LP  0  0  0  0  0  0  0  0  0  0  0  0  # atno 8755 bound_to 202 
  -53.8044  -16.0983   -7.7533 LP  0  0  0  0  0  0  0  0  0  0  0  0  # atno 8775 bound_to 1065
  -54.5746  -15.0131   -6.8069 LP  0  0  0  0  0  0  0  0  0  0  0  0  # atno 8776 bound_to 1065
  -48.9687  -20.2763   -1.1247 LP  0  0  0  0  0  0  0  0  0  0  0  0  # atno 8779 bound_to 2347
  -49.5600  -21.4606   -2.0811 LP  0  0  0  0  0  0  0  0  0  0  0  0  # atno 8780 bound_to 2347
  -30.9793   -9.4186   -8.0027 LP  0  0  0  0  0  0  0  0  0  0  0  0  # atno 8787 bound_to 380 
  -31.0494   -9.4099   -9.6341 LP  0  0  0  0  0  0  0  0  0  0  0  0  # atno 8788 bound_to 380 

$$$$
