unknown|11k_best|sdf|8274|dock7
  -GOLD-   3 721 0373D 1   1.00000     0.00000

 31 34  0  0  0  0  0  0  0  0  1 V2000
  -36.5047  -16.4040   -6.6326 C   0  0  0  0  0  0  0  0  0  0  0  0
  -37.5376  -15.5765   -7.3143 C   0  0  0  0  0  0  0  0  0  0  0  0
  -38.8960  -15.8265   -7.4696 C   0  0  0  0  0  0  0  0  0  0  0  0
  -39.5576  -14.6057   -7.5415 C   0  0  0  0  0  0  0  0  0  0  0  0
  -40.8951  -14.3491   -7.0900 N   0  0  0  0  0  0  0  0  0  0  0  0
  -41.7698  -15.3080   -6.7016 C   0  0  0  0  0  0  0  0  0  0  0  0
  -41.4704  -16.7741   -6.6693 C   0  0  0  0  0  0  0  0  0  0  0  0
  -43.0565  -14.8174   -6.8916 C   0  0  0  0  0  0  0  0  0  0  0  0
  -42.9618  -13.5308   -7.4095 C   0  0  0  0  0  0  0  0  0  0  0  0
  -43.9678  -12.8274   -8.2162 C   0  0  0  0  0  0  0  0  0  0  0  0
  -43.8013  -11.5832   -8.3936 O   0  0  0  0  0  0  0  0  0  0  0  0
  -44.8026  -13.4866   -9.1548 N   0  0  0  0  0  0  0  0  0  0  0  0
  -45.5100  -12.7731  -10.1726 C   0  0  0  0  0  0  0  0  0  0  0  0
  -45.4853  -11.4106  -10.2981 C   0  0  0  0  0  0  0  0  0  0  0  0
  -45.3987  -10.8353  -11.5601 C   0  0  0  0  0  0  0  0  0  0  0  0
  -45.5166  -11.5880  -12.7202 C   0  0  0  0  0  0  0  0  0  0  0  0
  -45.9574  -12.8939  -12.5436 C   0  0  0  0  0  0  0  0  0  0  0  0
  -46.8473  -13.7318  -13.8083 S   0  0  0  0  0  0  0  0  0  0  0  0
  -46.9919  -12.8305  -14.9932 O   0  0  0  0  0  0  0  0  0  0  0  0
  -48.1687  -14.1341  -13.2266 O   0  0  0  0  0  0  0  0  0  0  0  0
  -45.9410  -15.1392  -14.2360 N   0  0  0  0  0  0  0  0  0  0  0  0
  -46.5603  -15.7577  -15.3863 C   0  0  0  0  0  0  0  0  0  0  0  0
  -45.7326  -16.9559  -15.7834 C   0  0  0  0  0  0  0  0  0  0  0  0
  -44.6027  -17.2213  -14.8263 C   0  0  0  0  0  0  0  0  0  0  0  0
  -43.7066  -16.0241  -14.6277 C   0  0  0  0  0  0  0  0  0  0  0  0
  -44.5725  -14.7976  -14.5976 C   0  0  0  0  0  0  0  0  0  0  0  0
  -45.8875  -13.4990  -11.2954 C   0  0  0  0  0  0  0  0  0  0  0  0
  -41.6205  -13.2139   -7.2438 C   0  0  0  0  0  0  0  0  0  0  0  0
  -41.0393  -11.8738   -7.4515 C   0  0  0  0  0  0  0  0  0  0  0  0
  -38.5491  -13.7076   -7.6668 N   0  0  0  0  0  0  0  0  0  0  0  0
  -37.4171  -14.2624   -7.3931 O   0  0  0  0  0  0  0  0  0  0  0  0
  1  2  1  0  0  0  0
  2  3  2  0  0  0  0
  3  4  1  0  0  0  0
  4  5  1  0  0  0  0
  5  6  1  0  0  0  0
  6  7  1  0  0  0  0
  6  8  2  0  0  0  0
  8  9  1  0  0  0  0
  9 10  1  0  0  0  0
 10 11  2  0  0  0  0
 10 12  1  0  0  0  0
 12 13  1  0  0  0  0
 13 14  2  0  0  0  0
 14 15  1  0  0  0  0
 15 16  2  0  0  0  0
 16 17  1  0  0  0  0
 17 18  1  0  0  0  0
 18 19  2  0  0  0  0
 18 20  2  0  0  0  0
 18 21  1  0  0  0  0
 21 22  1  0  0  0  0
 22 23  1  0  0  0  0
 23 24  1  0  0  0  0
 24 25  1  0  0  0  0
 25 26  1  0  0  0  0
 17 27  2  0  0  0  0
  9 28  2  0  0  0  0
 28 29  1  0  0  0  0
  4 30  2  0  0  0  0
 30 31  1  0  0  0  0
 31  2  1  0  0  0  0
 28  5  1  0  0  0  0
 27 13  1  0  0  0  0
 26 21  1  0  0  0  0
M  END
>  <zinc_id>  (274) 
ZINC000021995480

>  <smiles>  (274) 
Cc1cc(-n2c(C)cc(C(=O)Nc3cccc(S(=O)(=O)N4CCCCC4)c3)c2C)no1

>  <source_line>  (274) 
274

>  <source_data>  (274) 
ZINC000021995480

>  <source_name>  (274) 


>  <source_label>  (274) 
ZINC000021995480

>  <found_by>  (274) 
ZINC

> <Gold.Version>
5.8.1

> <Gold.Id.Protein>
ID|ID_protein|mol2

> <Gold.Goldscore.Fitness>
69.8695

> <Gold.Goldscore.Internal.Vdw>
1.8519

> <Gold.Goldscore.Internal.Torsion>
-12.2312

> <Gold.Goldscore.External.Vdw>
45.4126

> <Gold.Goldscore.Internal.HBond>
0.0000

> <Gold.Goldscore.External.HBond>
11.4999

> <Gold.Goldscore.Internal.Correction>
-6.3066

> <Gold.Goldscore.Hbonds>
donor molecule, donor type, donor heavy atom, donor atom, acceptor molecule, acceptor atom, score
      P1  H   112  4464       L1    19  1.00
      P1  H   435  4829       L1    19  0.05
      P1  H   441  4841       L1    19  0.99
      P1  H  1916  6166       L1    20  1.00
      P1  H    83  8591       L1    31  0.73

> <Gold.Goldscore.Internal.Vdw.Weighted>
1.8519

> <Gold.Goldscore.Internal.Torsion.Weighted>
-12.2312

> <Gold.Goldscore.External.Vdw.Weighted>
62.4423

> <Gold.Goldscore.Internal.HBond.Weighted>
0.0000

> <Gold.Goldscore.External.HBond.Weighted>
11.4999

> <Gold.Goldscore.Internal.Correction.Weighted>
-6.3066

> <Gold.Protein.RotatedTorsions>
[ 4464  112  111  109 ] final   71.80 input   60.00 | X-H torsion
[ 4839  441  440  439 ] final -111.50 input   60.00 | X-H torsion
[ 4985  758  757  756 ] final   70.25 input   60.00 | X-H torsion
[ 5271 1023 1022 1020 ] final   96.53 input   60.00 | X-H torsion
[ 6036 1776 1775 1774 ] final  -71.52 input   60.00 | X-H torsion
[ 6078 1819 1818 1817 ] final  -56.43 input   60.00 | X-H torsion
[ 6166 1916 1915 1913 ] final  -51.49 input   60.00 | X-H torsion
[ 4818   65   64   63 ] final  142.93 input   60.00 | X-H torsion
[ 6268 1997 1996 1994 ] final   57.88 input   60.00 | X-H torsion
[ 8592   72   71   70 ] final  -92.87 input   60.00 | X-H torsion
[ 4356  100   99   97 ] final  157.98 input   60.00 | X-H torsion
[ 8510  202  201  200 ] final -159.70 input   60.00 | X-H torsion
[ 5330 1065 1064 1063 ] final  -83.27 input   60.00 | X-H torsion
[ 6640 2347 2346 2344 ] final   96.72 input   60.00 | X-H torsion
[ 4452  380  379  378 ] final    8.07 input   60.00 | X-H torsion
[ 4500  391  390  389 ] final   24.54 input   60.00 | X-H torsion

> <Gold.Protein.ActiveResidues>
 THR8    THR9    PRO10   ILE11   TYR12   TYR13   VAL14   ASN15   ALA16   HIS19  
 HIS22   SER25   VAL29   MET46   THR47   GLY48   THR49   ASP50   GLU51   HIS52  
 GLY53   GLN54   LYS55   VAL56   ALA57   GLU58   THR71   PHE78   ILE93   THR95  
 THR96   HIS100  GLU101  VAL104  TRP108  TYR126  VAL128  SER129  ASP130  GLU131 
 SER132  LEU210  SER211  ILE212  SER213  ARG214  LYS215  ARG216  SER218  VAL219 
 MET220  ASN221  TRP222  SER223  ILE224  PRO225  VAL226  HIS232  CYS233  ILE234 
 TYR235  VAL236  TRP237  LEU238  ASP239  ALA240  LEU241  PHE242  ASN243  TYR244 
 TYR245  THR246  HIS275  VAL276  VAL277  GLY278  LYS279  ASP280  ILE281  LEU282 
 LYS283  PHE284  HIS285  ALA286  ILE287  TYR288  TRP289  PRO290  PHE292  LEU304 
 TRP309 

> <Gold.Protein.RotatedAtoms>
  -31.9887   -7.8681   -6.4608 H   0  0  0  0  0  0  0  0  0  0  0  0  # atno 4356 bound_to 100 
  -31.2543   -9.8114   -8.7876 H   0  0  0  0  0  0  0  0  0  0  0  0  # atno 4452 bound_to 380 
  -45.8145  -11.6579  -15.4049 H   0  0  0  0  0  0  0  0  0  0  0  0  # atno 4464 bound_to 112 
  -34.7096  -11.3757  -16.0382 H   0  0  0  0  0  0  0  0  0  0  0  0  # atno 4500 bound_to 391 
  -31.7357  -16.0916   -3.9179 H   0  0  0  0  0  0  0  0  0  0  0  0  # atno 4818 bound_to 65  
  -48.6998  -11.3247  -12.7044 H   0  0  0  0  0  0  0  0  0  0  0  0  # atno 4839 bound_to 441 
  -49.4086  -10.8461  -14.1242 H   0  0  0  0  0  0  0  0  0  0  0  0  # atno 4840 bound_to 441 
  -47.8674  -11.4560  -14.1316 H   0  0  0  0  0  0  0  0  0  0  0  0  # atno 4841 bound_to 441 
  -37.3365  -18.1716  -15.9481 H   0  0  0  0  0  0  0  0  0  0  0  0  # atno 4985 bound_to 758 
  -54.4566  -17.6315  -15.0548 H   0  0  0  0  0  0  0  0  0  0  0  0  # atno 5271 bound_to 1023
  -53.9029  -16.0877   -7.3478 H   0  0  0  0  0  0  0  0  0  0  0  0  # atno 5330 bound_to 1065
  -53.3438  -16.6239  -18.0449 H   0  0  0  0  0  0  0  0  0  0  0  0  # atno 6036 bound_to 1776
  -44.7723  -17.3764  -18.6861 H   0  0  0  0  0  0  0  0  0  0  0  0  # atno 6078 bound_to 1819
  -49.1629  -15.0193  -12.0873 H   0  0  0  0  0  0  0  0  0  0  0  0  # atno 6166 bound_to 1916
  -34.8267  -15.0650   -5.6196 H   0  0  0  0  0  0  0  0  0  0  0  0  # atno 6268 bound_to 1997
  -48.9998  -20.3894   -1.0904 H   0  0  0  0  0  0  0  0  0  0  0  0  # atno 6640 bound_to 2347
  -35.5692   -7.6075   -2.3682 H   0  0  0  0  0  0  0  0  0  0  0  0  # atno 8510 bound_to 202 
  -32.7569   -9.1830   -5.0153 H   0  0  0  0  0  0  0  0  0  0  0  0  # atno 8592 bound_to 72  
  -44.7152  -11.3549  -16.5659 LP  0  0  0  0  0  0  0  0  0  0  0  0  # atno 8618 bound_to 112 
  -45.8752  -10.2560  -16.2289 LP  0  0  0  0  0  0  0  0  0  0  0  0  # atno 8619 bound_to 112 
  -37.7939  -17.7028  -17.4378 LP  0  0  0  0  0  0  0  0  0  0  0  0  # atno 8637 bound_to 758 
  -38.6961  -17.2979  -16.1383 LP  0  0  0  0  0  0  0  0  0  0  0  0  # atno 8638 bound_to 758 
  -54.2710  -17.2429  -13.4855 LP  0  0  0  0  0  0  0  0  0  0  0  0  # atno 8642 bound_to 1023
  -54.7422  -16.1076  -14.5605 LP  0  0  0  0  0  0  0  0  0  0  0  0  # atno 8643 bound_to 1023
  -54.5226  -17.5610  -17.4280 LP  0  0  0  0  0  0  0  0  0  0  0  0  # atno 8662 bound_to 1776
  -54.8968  -16.3271  -18.4301 LP  0  0  0  0  0  0  0  0  0  0  0  0  # atno 8663 bound_to 1776
  -46.2142  -18.1147  -18.5313 LP  0  0  0  0  0  0  0  0  0  0  0  0  # atno 8672 bound_to 1819
  -45.9105  -17.1743  -19.8313 LP  0  0  0  0  0  0  0  0  0  0  0  0  # atno 8673 bound_to 1819
  -49.4742  -15.5800  -10.5917 LP  0  0  0  0  0  0  0  0  0  0  0  0  # atno 8684 bound_to 1916
  -50.6233  -15.6530  -11.7498 LP  0  0  0  0  0  0  0  0  0  0  0  0  # atno 8685 bound_to 1916
  -30.9864  -15.1255   -2.8439 LP  0  0  0  0  0  0  0  0  0  0  0  0  # atno 8712 bound_to 65  
  -30.5502  -16.6933   -2.9795 LP  0  0  0  0  0  0  0  0  0  0  0  0  # atno 8713 bound_to 65  
  -34.5317  -15.4071   -4.0563 LP  0  0  0  0  0  0  0  0  0  0  0  0  # atno 8724 bound_to 1997
  -35.8594  -16.0107   -4.7907 LP  0  0  0  0  0  0  0  0  0  0  0  0  # atno 8725 bound_to 1997
  -31.4650   -8.4520   -4.3485 LP  0  0  0  0  0  0  0  0  0  0  0  0  # atno 8747 bound_to 72  
  -32.2942   -9.5787   -3.5062 LP  0  0  0  0  0  0  0  0  0  0  0  0  # atno 8748 bound_to 72  
  -33.1819   -8.1322   -5.3863 LP  0  0  0  0  0  0  0  0  0  0  0  0  # atno 8749 bound_to 100 
  -32.7332   -6.6057   -5.7536 LP  0  0  0  0  0  0  0  0  0  0  0  0  # atno 8750 bound_to 100 
  -35.3674   -5.9967   -2.4804 LP  0  0  0  0  0  0  0  0  0  0  0  0  # atno 8754 bound_to 202 
  -34.9382   -6.7831   -1.1151 LP  0  0  0  0  0  0  0  0  0  0  0  0  # atno 8755 bound_to 202 
  -54.6854  -14.6919   -7.0520 LP  0  0  0  0  0  0  0  0  0  0  0  0  # atno 8775 bound_to 1065
  -54.1702  -15.0383   -8.5624 LP  0  0  0  0  0  0  0  0  0  0  0  0  # atno 8776 bound_to 1065
  -49.5720  -21.4334   -2.1998 LP  0  0  0  0  0  0  0  0  0  0  0  0  # atno 8779 bound_to 2347
  -49.1232  -19.9280   -2.6461 LP  0  0  0  0  0  0  0  0  0  0  0  0  # atno 8780 bound_to 2347
  -30.5671   -8.6234   -9.6618 LP  0  0  0  0  0  0  0  0  0  0  0  0  # atno 8787 bound_to 380 
  -30.4763   -8.5984   -8.0316 LP  0  0  0  0  0  0  0  0  0  0  0  0  # atno 8788 bound_to 380 

$$$$
