unknown|11k_best|sdf|8310|dock10
  -GOLD-   3 721 1233D 1   1.00000     0.00000

 32 35  0  0  0  0  0  0  0  0  1 V2000
  -48.3817  -12.8644  -15.1069 O   0  0  0  0  0  0  0  0  0  0  0  0
  -47.6652  -13.8840  -14.9000 C   0  0  0  0  0  0  0  0  0  0  0  0
  -46.5115  -13.8723  -13.9492 C   0  0  0  0  0  0  0  0  0  0  0  0
  -46.9022  -14.7408  -12.7799 C   0  0  0  0  0  0  0  0  0  0  0  0
  -46.3523  -14.2444  -11.5213 N   0  0  0  0  0  0  0  0  0  0  0  0
  -45.2947  -13.2780  -11.4792 C   0  0  0  0  0  0  0  0  0  0  0  0
  -44.7934  -12.6146  -12.4254 O   0  0  0  0  0  0  0  0  0  0  0  0
  -44.7880  -13.3045   -9.7503 S   0  0  0  0  0  0  0  0  0  0  0  0
  -46.2147  -14.2261   -9.1474 C   0  0  0  0  0  0  0  0  0  0  0  0
  -46.4394  -14.6468   -7.9240 C   0  0  0  0  0  0  0  0  0  0  0  0
  -45.2890  -14.9667   -7.0977 C   0  0  0  0  0  0  0  0  0  0  0  0
  -44.3834  -15.8717   -7.3921 C   0  0  0  0  0  0  0  0  0  0  0  0
  -43.0052  -15.7036   -6.9329 C   0  0  0  0  0  0  0  0  0  0  0  0
  -42.6914  -15.4677   -5.6003 C   0  0  0  0  0  0  0  0  0  0  0  0
  -41.5253  -16.0303   -5.1021 C   0  0  0  0  0  0  0  0  0  0  0  0
  -40.5257  -16.4597   -5.9520 C   0  0  0  0  0  0  0  0  0  0  0  0
  -40.7141  -16.3390   -7.3216 C   0  0  0  0  0  0  0  0  0  0  0  0
  -41.9160  -15.8592   -7.7813 C   0  0  0  0  0  0  0  0  0  0  0  0
  -47.1081  -14.2180  -10.3150 C   0  0  0  0  0  0  0  0  0  0  0  0
  -48.3250  -14.5531  -10.1788 O   0  0  0  0  0  0  0  0  0  0  0  0
  -47.9422  -15.0092  -15.7422 N   0  0  0  0  0  0  0  0  0  0  0  0
  -47.1189  -16.1796  -15.7203 C   0  0  0  0  0  0  0  0  0  0  0  0
  -47.4108  -17.1473  -16.6738 C   0  0  0  0  0  0  0  0  0  0  0  0
  -46.6627  -18.2920  -16.7659 C   0  0  0  0  0  0  0  0  0  0  0  0
  -45.3356  -18.2555  -16.3804 C   0  0  0  0  0  0  0  0  0  0  0  0
  -44.4472  -19.0341  -16.9509 O   0  0  0  0  0  0  0  0  0  0  0  0
  -43.1572  -18.8477  -16.7736 C   0  0  0  0  0  0  0  0  0  0  0  0
  -42.3598  -19.5737  -17.4098 O   0  0  0  0  0  0  0  0  0  0  0  0
  -42.8037  -18.1755  -15.6120 C   0  0  0  0  0  0  0  0  0  0  0  0
  -43.6923  -17.3006  -15.0010 C   0  0  0  0  0  0  0  0  0  0  0  0
  -44.9989  -17.2691  -15.4669 C   0  0  0  0  0  0  0  0  0  0  0  0
  -45.8227  -16.1719  -15.2477 C   0  0  0  0  0  0  0  0  0  0  0  0
  1  2  2  0  0  0  0
  2  3  1  0  0  0  0
  3  4  1  0  0  0  0
  4  5  1  0  0  0  0
  5  6  1  0  0  0  0
  6  7  2  0  0  0  0
  6  8  1  0  0  0  0
  8  9  1  0  0  0  0
  9 10  2  0  0  0  0
 10 11  1  0  0  0  0
 11 12  2  0  0  0  0
 12 13  1  0  0  0  0
 13 14  2  0  0  0  0
 14 15  1  0  0  0  0
 15 16  2  0  0  0  0
 16 17  1  0  0  0  0
 17 18  2  0  0  0  0
  9 19  1  0  0  0  0
 19 20  2  0  0  0  0
  2 21  1  0  0  0  0
 21 22  1  0  0  0  0
 22 23  2  0  0  0  0
 23 24  1  0  0  0  0
 24 25  2  0  0  0  0
 25 26  1  0  0  0  0
 26 27  1  0  0  0  0
 27 28  2  0  0  0  0
 27 29  1  0  0  0  0
 29 30  2  0  0  0  0
 30 31  1  0  0  0  0
 31 32  2  0  0  0  0
 19  5  1  0  0  0  0
 32 22  1  0  0  0  0
 18 13  1  0  0  0  0
 31 25  1  0  0  0  0
M  END
>  <zinc_id>  (310) 
ZINC000009253216

>  <smiles>  (310) 
O=C(CCN1C(=O)S/C(=C\C=C\c2ccccc2)C1=O)Nc1ccc2oc(=O)ccc2c1

>  <source_line>  (310) 
310

>  <source_data>  (310) 
ZINC000009253216

>  <source_name>  (310) 


>  <source_label>  (310) 
ZINC000009253216

>  <found_by>  (310) 
ZINC

> <Gold.Version>
5.8.1

> <Gold.Id.Protein>
ID|ID_protein|mol2

> <Gold.Goldscore.Fitness>
77.2289

> <Gold.Goldscore.Internal.Vdw>
0.5938

> <Gold.Goldscore.Internal.Torsion>
-2.4572

> <Gold.Goldscore.External.Vdw>
57.0435

> <Gold.Goldscore.Internal.HBond>
0.0000

> <Gold.Goldscore.External.HBond>
2.6589

> <Gold.Goldscore.Internal.Correction>
2.0015

> <Gold.Goldscore.Hbonds>
donor molecule, donor type, donor heavy atom, donor atom, acceptor molecule, acceptor atom, score
      P1  H   112  4464       L1     1  0.02
      P1  H   426  4822       L1    21  0.02
      P1  H   435  4829       L1     1  0.18
      P1  H  1822  6079       L1    28  0.38
      P1  H  1916  6166       L1    20  0.68

> <Gold.Goldscore.Internal.Vdw.Weighted>
0.5938

> <Gold.Goldscore.Internal.Torsion.Weighted>
-2.4572

> <Gold.Goldscore.External.Vdw.Weighted>
78.4348

> <Gold.Goldscore.Internal.HBond.Weighted>
0.0000

> <Gold.Goldscore.External.HBond.Weighted>
2.6589

> <Gold.Goldscore.Internal.Correction.Weighted>
2.0015

> <Gold.Protein.RotatedTorsions>
[ 4464  112  111  109 ] final  104.32 input   60.00 | X-H torsion
[ 4839  441  440  439 ] final  165.66 input   60.00 | X-H torsion
[ 4985  758  757  756 ] final -141.67 input   60.00 | X-H torsion
[ 5271 1023 1022 1020 ] final  121.83 input   60.00 | X-H torsion
[ 6036 1776 1775 1774 ] final  -85.00 input   60.00 | X-H torsion
[ 6078 1819 1818 1817 ] final  114.25 input   60.00 | X-H torsion
[ 6166 1916 1915 1913 ] final -134.03 input   60.00 | X-H torsion
[ 4818   65   64   63 ] final -155.70 input   60.00 | X-H torsion
[ 6268 1997 1996 1994 ] final  113.47 input   60.00 | X-H torsion
[ 8592   72   71   70 ] final  -27.74 input   60.00 | X-H torsion
[ 4356  100   99   97 ] final  -66.19 input   60.00 | X-H torsion
[ 8510  202  201  200 ] final   74.09 input   60.00 | X-H torsion
[ 5330 1065 1064 1063 ] final  -55.43 input   60.00 | X-H torsion
[ 6640 2347 2346 2344 ] final    2.55 input   60.00 | X-H torsion
[ 4452  380  379  378 ] final   87.21 input   60.00 | X-H torsion
[ 4500  391  390  389 ] final  -30.39 input   60.00 | X-H torsion

> <Gold.Protein.ActiveResidues>
 THR8    THR9    PRO10   ILE11   TYR12   TYR13   VAL14   ASN15   ALA16   HIS19  
 HIS22   SER25   VAL29   MET46   THR47   GLY48   THR49   ASP50   GLU51   HIS52  
 GLY53   GLN54   LYS55   VAL56   ALA57   GLU58   THR71   PHE78   ILE93   THR95  
 THR96   HIS100  GLU101  VAL104  TRP108  TYR126  VAL128  SER129  ASP130  GLU131 
 SER132  LEU210  SER211  ILE212  SER213  ARG214  LYS215  ARG216  SER218  VAL219 
 MET220  ASN221  TRP222  SER223  ILE224  PRO225  VAL226  HIS232  CYS233  ILE234 
 TYR235  VAL236  TRP237  LEU238  ASP239  ALA240  LEU241  PHE242  ASN243  TYR244 
 TYR245  THR246  HIS275  VAL276  VAL277  GLY278  LYS279  ASP280  ILE281  LEU282 
 LYS283  PHE284  HIS285  ALA286  ILE287  TYR288  TRP289  PRO290  PHE292  LEU304 
 TRP309 

> <Gold.Protein.RotatedAtoms>
  -32.9179   -6.6881   -5.5921 H   0  0  0  0  0  0  0  0  0  0  0  0  # atno 4356 bound_to 100 
  -30.8066   -9.1500   -7.9016 H   0  0  0  0  0  0  0  0  0  0  0  0  # atno 4452 bound_to 380 
  -46.1177  -11.2302  -15.4044 H   0  0  0  0  0  0  0  0  0  0  0  0  # atno 4464 bound_to 112 
  -33.9306  -11.0520  -15.8537 H   0  0  0  0  0  0  0  0  0  0  0  0  # atno 4500 bound_to 391 
  -31.1805  -16.8172   -3.6381 H   0  0  0  0  0  0  0  0  0  0  0  0  # atno 4818 bound_to 65  
  -47.7809  -11.5727  -13.5394 H   0  0  0  0  0  0  0  0  0  0  0  0  # atno 4839 bound_to 441 
  -49.2289  -11.0885  -12.8945 H   0  0  0  0  0  0  0  0  0  0  0  0  # atno 4840 bound_to 441 
  -48.9661  -10.9656  -14.5264 H   0  0  0  0  0  0  0  0  0  0  0  0  # atno 4841 bound_to 441 
  -38.7256  -17.2211  -16.5867 H   0  0  0  0  0  0  0  0  0  0  0  0  # atno 4985 bound_to 758 
  -54.5754  -17.2923  -15.2524 H   0  0  0  0  0  0  0  0  0  0  0  0  # atno 5271 bound_to 1023
  -53.8055  -16.0864   -7.7875 H   0  0  0  0  0  0  0  0  0  0  0  0  # atno 5330 bound_to 1065
  -53.3188  -16.7947  -17.9088 H   0  0  0  0  0  0  0  0  0  0  0  0  # atno 6036 bound_to 1776
  -46.4477  -17.6459  -19.4627 H   0  0  0  0  0  0  0  0  0  0  0  0  # atno 6078 bound_to 1819
  -49.0220  -15.3247  -10.8989 H   0  0  0  0  0  0  0  0  0  0  0  0  # atno 6166 bound_to 1916
  -35.5609  -15.5373   -5.6212 H   0  0  0  0  0  0  0  0  0  0  0  0  # atno 6268 bound_to 1997
  -49.5031  -21.4585   -1.7863 H   0  0  0  0  0  0  0  0  0  0  0  0  # atno 6640 bound_to 2347
  -35.3248   -5.9559   -2.3971 H   0  0  0  0  0  0  0  0  0  0  0  0  # atno 8510 bound_to 202 
  -32.8496   -9.7050   -4.1583 H   0  0  0  0  0  0  0  0  0  0  0  0  # atno 8592 bound_to 72  
  -44.8159  -11.7502  -16.2307 LP  0  0  0  0  0  0  0  0  0  0  0  0  # atno 8618 bound_to 112 
  -45.4692  -10.2914  -16.5646 LP  0  0  0  0  0  0  0  0  0  0  0  0  # atno 8619 bound_to 112 
  -37.6502  -18.0136  -15.6574 LP  0  0  0  0  0  0  0  0  0  0  0  0  # atno 8637 bound_to 758 
  -37.4409  -17.9444  -17.2755 LP  0  0  0  0  0  0  0  0  0  0  0  0  # atno 8638 bound_to 758 
  -54.2208  -17.5962  -13.6935 LP  0  0  0  0  0  0  0  0  0  0  0  0  # atno 8642 bound_to 1023
  -54.6727  -16.0959  -14.1536 LP  0  0  0  0  0  0  0  0  0  0  0  0  # atno 8643 bound_to 1023
  -54.7250  -17.5015  -17.4948 LP  0  0  0  0  0  0  0  0  0  0  0  0  # atno 8662 bound_to 1776
  -54.7196  -16.2146  -18.5002 LP  0  0  0  0  0  0  0  0  0  0  0  0  # atno 8663 bound_to 1776
  -44.9479  -17.0195  -19.3851 LP  0  0  0  0  0  0  0  0  0  0  0  0  # atno 8672 bound_to 1819
  -45.4896  -17.9982  -18.1954 LP  0  0  0  0  0  0  0  0  0  0  0  0  # atno 8673 bound_to 1819
  -50.5542  -15.8026  -11.1673 LP  0  0  0  0  0  0  0  0  0  0  0  0  # atno 8684 bound_to 1916
  -49.6852  -15.1227  -12.3711 LP  0  0  0  0  0  0  0  0  0  0  0  0  # atno 8685 bound_to 1916
  -31.6457  -15.2615   -3.5316 LP  0  0  0  0  0  0  0  0  0  0  0  0  # atno 8712 bound_to 65  
  -30.4500  -15.8266   -2.5736 LP  0  0  0  0  0  0  0  0  0  0  0  0  # atno 8713 bound_to 65  
  -34.2746  -14.9916   -4.7872 LP  0  0  0  0  0  0  0  0  0  0  0  0  # atno 8724 bound_to 1997
  -35.3770  -15.9507   -4.0582 LP  0  0  0  0  0  0  0  0  0  0  0  0  # atno 8725 bound_to 1997
  -32.1209   -8.6028   -5.1081 LP  0  0  0  0  0  0  0  0  0  0  0  0  # atno 8747 bound_to 72  
  -31.5449   -8.9021   -3.6096 LP  0  0  0  0  0  0  0  0  0  0  0  0  # atno 8748 bound_to 72  
  -31.9366   -7.6174   -6.4984 LP  0  0  0  0  0  0  0  0  0  0  0  0  # atno 8749 bound_to 100 
  -33.0429   -8.3088   -5.5163 LP  0  0  0  0  0  0  0  0  0  0  0  0  # atno 8750 bound_to 100 
  -34.9531   -6.8842   -1.1133 LP  0  0  0  0  0  0  0  0  0  0  0  0  # atno 8754 bound_to 202 
  -35.5985   -7.5590   -2.4530 LP  0  0  0  0  0  0  0  0  0  0  0  0  # atno 8755 bound_to 202 
  -54.5619  -15.0435   -6.7934 LP  0  0  0  0  0  0  0  0  0  0  0  0  # atno 8775 bound_to 1065
  -54.3918  -14.6880   -8.3782 LP  0  0  0  0  0  0  0  0  0  0  0  0  # atno 8776 bound_to 1065
  -49.2779  -20.2566   -2.8599 LP  0  0  0  0  0  0  0  0  0  0  0  0  # atno 8779 bound_to 2347
  -48.9106  -20.0281   -1.2852 LP  0  0  0  0  0  0  0  0  0  0  0  0  # atno 8780 bound_to 2347
  -31.1742   -9.6295   -9.4126 LP  0  0  0  0  0  0  0  0  0  0  0  0  # atno 8787 bound_to 380 
  -30.3201   -8.2584   -9.1730 LP  0  0  0  0  0  0  0  0  0  0  0  0  # atno 8788 bound_to 380 

$$$$
