unknown|11k_best|sdf|8244|dock4
  -GOLD-   3 62123593D 1   1.00000     0.00000

 29 31  0  0  0  0  0  0  0  0  1 V2000
  -47.3923  -18.8500  -17.2600 C   0  0  0  0  0  0  0  0  0  0  0  0
  -48.2608  -17.7222  -16.8523 C   0  0  0  0  0  0  0  0  0  0  0  0
  -49.5842  -17.6521  -17.2430 C   0  0  0  0  0  0  0  0  0  0  0  0
  -50.3508  -16.5371  -16.9829 C   0  0  0  0  0  0  0  0  0  0  0  0
  -49.7479  -15.4245  -16.4543 C   0  0  0  0  0  0  0  0  0  0  0  0
  -48.4529  -15.5329  -16.0213 C   0  0  0  0  0  0  0  0  0  0  0  0
  -47.6312  -16.6109  -16.3137 C   0  0  0  0  0  0  0  0  0  0  0  0
  -46.4121  -16.7227  -15.6389 O   0  0  0  0  0  0  0  0  0  0  0  0
  -46.3231  -16.6455  -14.2188 C   0  0  0  0  0  0  0  0  0  0  0  0
  -46.3066  -15.2079  -13.8207 C   0  0  0  0  0  0  0  0  0  0  0  0
  -47.3382  -14.3407  -13.7497 N   0  0  0  0  0  0  0  0  0  0  0  0
  -46.9315  -13.2017  -13.2009 N   0  0  0  0  0  0  0  0  0  0  0  0
  -45.6023  -13.3139  -12.9742 C   0  0  0  0  0  0  0  0  0  0  0  0
  -44.6184  -11.9907  -12.2922 S   0  0  0  0  0  0  0  0  0  0  0  0
  -44.4925  -12.2742  -10.5045 C   0  0  0  0  0  0  0  0  0  0  0  0
  -43.1793  -11.7231  -10.0473 C   0  0  0  0  0  0  0  0  0  0  0  0
  -43.0388  -10.4915   -9.7844 O   0  0  0  0  0  0  0  0  0  0  0  0
  -42.1146  -12.5691   -9.6071 N   0  0  0  0  0  0  0  0  0  0  0  0
  -40.8734  -12.0364   -9.1274 C   0  0  0  0  0  0  0  0  0  0  0  0
  -40.1048  -12.8790   -8.3387 C   0  0  0  0  0  0  0  0  0  0  0  0
  -39.3787  -12.4133   -7.2486 C   0  0  0  0  0  0  0  0  0  0  0  0
  -39.4466  -11.0699   -6.9007 C   0  0  0  0  0  0  0  0  0  0  0  0
  -39.8970  -10.2198   -7.9026 C   0  0  0  0  0  0  0  0  0  0  0  0
  -39.7166   -8.7868   -7.6461 C   0  0  0  0  0  0  0  0  0  0  0  0
  -39.2065   -8.3657   -6.5687 O   0  0  0  0  0  0  0  0  0  0  0  0
  -40.0920   -7.9245   -8.6799 O   0  0  0  0  0  0  0  0  0  0  0  0
  -40.7340  -10.6704   -8.9147 C   0  0  0  0  0  0  0  0  0  0  0  0
  -45.2128  -14.4701  -13.5276 N   0  0  0  0  0  0  0  0  0  0  0  0
  -43.8196  -14.8742  -13.6939 C   0  0  0  0  0  0  0  0  0  0  0  0
  1  2  1  0  0  0  0
  2  3  2  0  0  0  0
  3  4  1  0  0  0  0
  4  5  2  0  0  0  0
  5  6  1  0  0  0  0
  6  7  2  0  0  0  0
  7  8  1  0  0  0  0
  8  9  1  0  0  0  0
  9 10  1  0  0  0  0
 10 11  2  0  0  0  0
 11 12  1  0  0  0  0
 12 13  2  0  0  0  0
 13 14  1  0  0  0  0
 14 15  1  0  0  0  0
 15 16  1  0  0  0  0
 16 17  2  0  0  0  0
 16 18  1  0  0  0  0
 18 19  1  0  0  0  0
 19 20  2  0  0  0  0
 20 21  1  0  0  0  0
 21 22  2  0  0  0  0
 22 23  1  0  0  0  0
 23 24  1  0  0  0  0
 24 25  2  0  0  0  0
 24 26  1  0  0  0  0
 23 27  2  0  0  0  0
 13 28  1  0  0  0  0
 28 29  1  0  0  0  0
  7  2  1  0  0  0  0
 28 10  1  0  0  0  0
 27 19  1  0  0  0  0
M  END
>  <zinc_id>  (244) 
ZINC000072191526

>  <smiles>  (244) 
Cc1ccccc1OCc1nnc(SCC(=O)Nc2cccc(C(=O)O)c2)n1C

>  <source_line>  (244) 
244

>  <source_data>  (244) 
ZINC000072191526

>  <source_name>  (244) 


>  <source_label>  (244) 
ZINC000072191526

>  <found_by>  (244) 
ZINC

> <Gold.Version>
5.8.1

> <Gold.Id.Protein>
ID|ID_protein|mol2

> <Gold.Goldscore.Fitness>
66.7213

> <Gold.Goldscore.Internal.Vdw>
0.3883

> <Gold.Goldscore.Internal.Torsion>
-14.1150

> <Gold.Goldscore.External.Vdw>
50.0826

> <Gold.Goldscore.Internal.HBond>
0.0000

> <Gold.Goldscore.External.HBond>
8.2014

> <Gold.Goldscore.Internal.Correction>
-3.3829

> <Gold.Goldscore.Hbonds>
donor molecule, donor type, donor heavy atom, donor atom, acceptor molecule, acceptor atom, score
      P1  H   441  4840       L1    12  0.79
      P1  H  1916  6166       L1    11  0.07
      P1  H   103  4530       L1    26  0.56

> <Gold.Goldscore.Internal.Vdw.Weighted>
0.3883

> <Gold.Goldscore.Internal.Torsion.Weighted>
-14.1150

> <Gold.Goldscore.External.Vdw.Weighted>
68.8636

> <Gold.Goldscore.Internal.HBond.Weighted>
0.0000

> <Gold.Goldscore.External.HBond.Weighted>
8.2014

> <Gold.Goldscore.Internal.Correction.Weighted>
-3.3829

> <Gold.Protein.RotatedTorsions>
[ 4464  112  111  109 ] final  -17.47 input   60.00 | X-H torsion
[ 4839  441  440  439 ] final   50.77 input   60.00 | X-H torsion
[ 4985  758  757  756 ] final  171.20 input   60.00 | X-H torsion
[ 5271 1023 1022 1020 ] final -178.75 input   60.00 | X-H torsion
[ 6036 1776 1775 1774 ] final  -31.81 input   60.00 | X-H torsion
[ 6078 1819 1818 1817 ] final -115.82 input   60.00 | X-H torsion
[ 6166 1916 1915 1913 ] final  -55.71 input   60.00 | X-H torsion
[ 4818   65   64   63 ] final  137.68 input   60.00 | X-H torsion
[ 6268 1997 1996 1994 ] final   92.61 input   60.00 | X-H torsion
[ 8592   72   71   70 ] final  126.28 input   60.00 | X-H torsion
[ 4356  100   99   97 ] final -142.90 input   60.00 | X-H torsion
[ 8510  202  201  200 ] final -145.71 input   60.00 | X-H torsion
[ 5330 1065 1064 1063 ] final   39.27 input   60.00 | X-H torsion
[ 6640 2347 2346 2344 ] final -118.24 input   60.00 | X-H torsion
[ 4452  380  379  378 ] final   27.37 input   60.00 | X-H torsion
[ 4500  391  390  389 ] final -145.13 input   60.00 | X-H torsion

> <Gold.Protein.ActiveResidues>
 THR8    THR9    PRO10   ILE11   TYR12   TYR13   VAL14   ASN15   ALA16   HIS19  
 HIS22   SER25   VAL29   MET46   THR47   GLY48   THR49   ASP50   GLU51   HIS52  
 GLY53   GLN54   LYS55   VAL56   ALA57   GLU58   THR71   PHE78   ILE93   THR95  
 THR96   HIS100  GLU101  VAL104  TRP108  TYR126  VAL128  SER129  ASP130  GLU131 
 SER132  LEU210  SER211  ILE212  SER213  ARG214  LYS215  ARG216  SER218  VAL219 
 MET220  ASN221  TRP222  SER223  ILE224  PRO225  VAL226  HIS232  CYS233  ILE234 
 TYR235  VAL236  TRP237  LEU238  ASP239  ALA240  LEU241  PHE242  ASN243  TYR244 
 TYR245  THR246  HIS275  VAL276  VAL277  GLY278  LYS279  ASP280  ILE281  LEU282 
 LYS283  PHE284  HIS285  ALA286  ILE287  TYR288  TRP289  PRO290  PHE292  LEU304 
 TRP309 

> <Gold.Protein.RotatedAtoms>
  -32.0821   -6.9554   -6.3537 H   0  0  0  0  0  0  0  0  0  0  0  0  # atno 4356 bound_to 100 
  -31.2097   -9.7618   -8.4808 H   0  0  0  0  0  0  0  0  0  0  0  0  # atno 4452 bound_to 380 
  -44.8076  -11.7274  -16.2487 H   0  0  0  0  0  0  0  0  0  0  0  0  # atno 4464 bound_to 112 
  -34.1316   -9.7214  -16.6757 H   0  0  0  0  0  0  0  0  0  0  0  0  # atno 4500 bound_to 391 
  -31.7559  -16.0088   -3.9080 H   0  0  0  0  0  0  0  0  0  0  0  0  # atno 4818 bound_to 65  
  -48.8904  -10.9914  -14.5561 H   0  0  0  0  0  0  0  0  0  0  0  0  # atno 4839 bound_to 441 
  -47.7979  -11.5775  -13.4560 H   0  0  0  0  0  0  0  0  0  0  0  0  # atno 4840 bound_to 441 
  -49.2877  -11.0578  -12.9483 H   0  0  0  0  0  0  0  0  0  0  0  0  # atno 4841 bound_to 441 
  -38.5624  -17.4109  -15.8812 H   0  0  0  0  0  0  0  0  0  0  0  0  # atno 4985 bound_to 758 
  -54.7571  -16.4061  -15.0451 H   0  0  0  0  0  0  0  0  0  0  0  0  # atno 5271 bound_to 1023
  -54.1929  -15.0057   -8.5482 H   0  0  0  0  0  0  0  0  0  0  0  0  # atno 5330 bound_to 1065
  -53.6905  -16.2212  -18.3945 H   0  0  0  0  0  0  0  0  0  0  0  0  # atno 6036 bound_to 1776
  -45.3429  -17.9285  -18.2066 H   0  0  0  0  0  0  0  0  0  0  0  0  # atno 6078 bound_to 1819
  -49.1160  -15.0173  -12.0367 H   0  0  0  0  0  0  0  0  0  0  0  0  # atno 6166 bound_to 1916
  -35.3038  -15.3386   -5.7178 H   0  0  0  0  0  0  0  0  0  0  0  0  # atno 6268 bound_to 1997
  -49.2707  -20.2483   -2.8501 H   0  0  0  0  0  0  0  0  0  0  0  0  # atno 6640 bound_to 2347
  -35.5015   -7.6925   -2.1678 H   0  0  0  0  0  0  0  0  0  0  0  0  # atno 8510 bound_to 202 
  -31.4191   -8.5793   -4.0364 H   0  0  0  0  0  0  0  0  0  0  0  0  # atno 8592 bound_to 72  
  -45.4929  -10.2824  -16.5494 LP  0  0  0  0  0  0  0  0  0  0  0  0  # atno 8618 bound_to 112 
  -46.1116  -11.2585  -15.3956 LP  0  0  0  0  0  0  0  0  0  0  0  0  # atno 8619 bound_to 112 
  -37.1967  -18.2283  -16.2201 LP  0  0  0  0  0  0  0  0  0  0  0  0  # atno 8637 bound_to 758 
  -38.0587  -17.5385  -17.4233 LP  0  0  0  0  0  0  0  0  0  0  0  0  # atno 8638 bound_to 758 
  -54.3034  -17.8964  -14.5747 LP  0  0  0  0  0  0  0  0  0  0  0  0  # atno 8642 bound_to 1023
  -54.4071  -16.6881  -13.4811 LP  0  0  0  0  0  0  0  0  0  0  0  0  # atno 8643 bound_to 1023
  -53.8851  -17.5022  -17.4098 LP  0  0  0  0  0  0  0  0  0  0  0  0  # atno 8662 bound_to 1776
  -55.1852  -16.7914  -18.0962 LP  0  0  0  0  0  0  0  0  0  0  0  0  # atno 8663 bound_to 1776
  -46.4959  -17.7407  -19.3395 LP  0  0  0  0  0  0  0  0  0  0  0  0  # atno 8672 bound_to 1819
  -45.0542  -16.9923  -19.5060 LP  0  0  0  0  0  0  0  0  0  0  0  0  # atno 8673 bound_to 1819
  -49.5373  -15.6067  -10.5796 LP  0  0  0  0  0  0  0  0  0  0  0  0  # atno 8684 bound_to 1916
  -50.6075  -15.6282  -11.8128 LP  0  0  0  0  0  0  0  0  0  0  0  0  # atno 8685 bound_to 1916
  -30.9239  -15.1608   -2.7959 LP  0  0  0  0  0  0  0  0  0  0  0  0  # atno 8712 bound_to 65  
  -30.5924  -16.7414   -3.0375 LP  0  0  0  0  0  0  0  0  0  0  0  0  # atno 8713 bound_to 65  
  -34.2882  -15.1097   -4.4672 LP  0  0  0  0  0  0  0  0  0  0  0  0  # atno 8724 bound_to 1997
  -35.6224  -16.0326   -4.2808 LP  0  0  0  0  0  0  0  0  0  0  0  0  # atno 8725 bound_to 1997
  -32.5530   -9.6955   -3.6955 LP  0  0  0  0  0  0  0  0  0  0  0  0  # atno 8747 bound_to 72  
  -32.5534   -8.9432   -5.1449 LP  0  0  0  0  0  0  0  0  0  0  0  0  # atno 8748 bound_to 72  
  -32.5426   -8.4688   -5.9722 LP  0  0  0  0  0  0  0  0  0  0  0  0  # atno 8749 bound_to 100 
  -33.2785   -7.1883   -5.2755 LP  0  0  0  0  0  0  0  0  0  0  0  0  # atno 8750 bound_to 100 
  -35.4538   -6.1362   -2.6409 LP  0  0  0  0  0  0  0  0  0  0  0  0  # atno 8754 bound_to 202 
  -34.9199   -6.5580   -1.1564 LP  0  0  0  0  0  0  0  0  0  0  0  0  # atno 8755 bound_to 202 
  -53.8856  -16.1004   -7.3841 LP  0  0  0  0  0  0  0  0  0  0  0  0  # atno 8775 bound_to 1065
  -54.6781  -14.7195   -7.0215 LP  0  0  0  0  0  0  0  0  0  0  0  0  # atno 8776 bound_to 1065
  -48.9124  -20.0378   -1.2767 LP  0  0  0  0  0  0  0  0  0  0  0  0  # atno 8779 bound_to 2347
  -49.5100  -21.4657   -1.7971 LP  0  0  0  0  0  0  0  0  0  0  0  0  # atno 8780 bound_to 2347
  -30.7279   -8.8776   -9.7591 LP  0  0  0  0  0  0  0  0  0  0  0  0  # atno 8787 bound_to 380 
  -30.3605   -8.3941   -8.2432 LP  0  0  0  0  0  0  0  0  0  0  0  0  # atno 8788 bound_to 380 

$$$$
