unknown|11k_best|sdf|8264|dock10
  -GOLD-   3 721 0263D 1   1.00000     0.00000

 31 34  0  0  0  0  0  0  0  0  1 V2000
  -48.2302   -6.3310   -9.8282 C   0  0  0  0  0  0  0  0  0  0  0  0
  -46.9605   -6.9204  -10.0860 O   0  0  0  0  0  0  0  0  0  0  0  0
  -46.9043   -8.3034  -10.1757 C   0  0  0  0  0  0  0  0  0  0  0  0
  -45.6960   -8.9482  -10.3880 C   0  0  0  0  0  0  0  0  0  0  0  0
  -45.5943  -10.2707  -10.0629 C   0  0  0  0  0  0  0  0  0  0  0  0
  -46.7373  -10.9717   -9.6927 C   0  0  0  0  0  0  0  0  0  0  0  0
  -46.5070  -12.5787   -9.8432 C   0  0  2  0  0  0  0  0  0  0  0  0
  -47.2114  -12.6457  -11.2736 N   0  0  0  0  0  0  0  0  0  0  0  0
  -46.8795  -13.7830  -12.0401 C   0  0  0  0  0  0  0  0  0  0  0  0
  -46.7675  -14.8528  -11.3672 O   0  0  0  0  0  0  0  0  0  0  0  0
  -47.4837  -13.8156  -13.4120 C   0  0  0  0  0  0  0  0  0  0  0  0
  -46.3475  -13.8882  -14.3318 N   0  0  0  0  0  0  0  0  0  0  0  0
  -45.1216  -13.4743  -14.0091 N   0  0  0  0  0  0  0  0  0  0  0  0
  -44.2072  -14.2506  -14.5518 N   0  0  0  0  0  0  0  0  0  0  0  0
  -44.8392  -15.2155  -15.2352 C   0  0  0  0  0  0  0  0  0  0  0  0
  -44.4080  -16.5892  -15.5301 C   0  0  0  0  0  0  0  0  0  0  0  0
  -43.2904  -17.1350  -14.9493 C   0  0  0  0  0  0  0  0  0  0  0  0
  -42.8618  -18.3759  -15.4068 C   0  0  0  0  0  0  0  0  0  0  0  0
  -43.4321  -18.9275  -16.5328 C   0  0  0  0  0  0  0  0  0  0  0  0
  -42.7581  -19.7192  -17.4054 F   0  0  0  0  0  0  0  0  0  0  0  0
  -44.7188  -18.5718  -16.8584 C   0  0  0  0  0  0  0  0  0  0  0  0
  -45.2323  -17.4580  -16.2386 C   0  0  0  0  0  0  0  0  0  0  0  0
  -46.1313  -14.8084  -15.2734 N   0  0  0  0  0  0  0  0  0  0  0  0
  -47.8460  -12.9415   -8.9858 C   0  0  0  0  0  0  0  0  0  0  0  0
  -48.7808  -13.7504   -9.4904 C   0  0  0  0  0  0  0  0  0  0  0  0
  -49.6043  -14.4581   -8.6187 C   0  0  0  0  0  0  0  0  0  0  0  0
  -49.0602  -14.8799   -7.4119 C   0  0  0  0  0  0  0  0  0  0  0  0
  -47.9347  -14.2379   -6.9203 C   0  0  0  0  0  0  0  0  0  0  0  0
  -47.3905  -13.2435   -7.7028 C   0  0  0  0  0  0  0  0  0  0  0  0
  -47.9463  -10.4793  -10.0355 C   0  0  0  0  0  0  0  0  0  0  0  0
  -48.0468   -9.0915  -10.0965 C   0  0  0  0  0  0  0  0  0  0  0  0
  1  2  1  0  0  0  0
  2  3  1  0  0  0  0
  3  4  2  0  0  0  0
  4  5  1  0  0  0  0
  5  6  2  0  0  0  0
  7  6  1  0  0  0  0
  7  8  1  0  0  0  0
  8  9  1  0  0  0  0
  9 10  2  0  0  0  0
  9 11  1  0  0  0  0
 11 12  1  0  0  0  0
 12 13  1  0  0  0  0
 13 14  2  0  0  0  0
 14 15  1  0  0  0  0
 15 16  1  0  0  0  0
 16 17  2  0  0  0  0
 17 18  1  0  0  0  0
 18 19  2  0  0  0  0
 19 20  1  0  0  0  0
 19 21  1  0  0  0  0
 21 22  2  0  0  0  0
 15 23  2  0  0  0  0
  7 24  1  0  0  0  0
 24 25  2  0  0  0  0
 25 26  1  0  0  0  0
 26 27  2  0  0  0  0
 27 28  1  0  0  0  0
 28 29  2  0  0  0  0
  6 30  1  0  0  0  0
 30 31  2  0  0  0  0
 31  3  1  0  0  0  0
 23 12  1  0  0  0  0
 29 24  1  0  0  0  0
 22 16  1  0  0  0  0
M  END
>  <zinc_id>  (264) 
ZINC000007490214

>  <smiles>  (264) 
COc1ccc([C@H](NC(=O)Cn2nnc(-c3ccc(F)cc3)n2)c2ccccc2)cc1

>  <source_line>  (264) 
264

>  <source_data>  (264) 
ZINC000007490214

>  <source_name>  (264) 


>  <source_label>  (264) 
ZINC000007490214

>  <found_by>  (264) 
ZINC

> <Gold.Version>
5.8.1

> <Gold.Id.Protein>
ID|ID_protein|mol2

> <Gold.Goldscore.Fitness>
57.6364

> <Gold.Goldscore.Internal.Vdw>
0.3058

> <Gold.Goldscore.Internal.Torsion>
-6.1229

> <Gold.Goldscore.External.Vdw>
38.5566

> <Gold.Goldscore.Internal.HBond>
0.0000

> <Gold.Goldscore.External.HBond>
10.1412

> <Gold.Goldscore.Internal.Correction>
-0.2970

> <Gold.Goldscore.Hbonds>
donor molecule, donor type, donor heavy atom, donor atom, acceptor molecule, acceptor atom, score
      P1  H   112  4464       L1    13  0.05
      P1  H   441  4841       L1     8  0.98
      P1  H  1916  6166       L1    10  0.05
      P1  H   127  4539       L1     2  0.07

> <Gold.Goldscore.Internal.Vdw.Weighted>
0.3058

> <Gold.Goldscore.Internal.Torsion.Weighted>
-6.1229

> <Gold.Goldscore.External.Vdw.Weighted>
53.0153

> <Gold.Goldscore.Internal.HBond.Weighted>
0.0000

> <Gold.Goldscore.External.HBond.Weighted>
10.1412

> <Gold.Goldscore.Internal.Correction.Weighted>
-0.2970

> <Gold.Protein.RotatedTorsions>
[ 4464  112  111  109 ] final   27.61 input   60.00 | X-H torsion
[ 4839  441  440  439 ] final  -34.76 input   60.00 | X-H torsion
[ 4985  758  757  756 ] final   32.95 input   60.00 | X-H torsion
[ 5271 1023 1022 1020 ] final  158.05 input   60.00 | X-H torsion
[ 6036 1776 1775 1774 ] final  -87.72 input   60.00 | X-H torsion
[ 6078 1819 1818 1817 ] final   18.52 input   60.00 | X-H torsion
[ 6166 1916 1915 1913 ] final  -99.85 input   60.00 | X-H torsion
[ 4818   65   64   63 ] final  -88.79 input   60.00 | X-H torsion
[ 6268 1997 1996 1994 ] final    5.23 input   60.00 | X-H torsion
[ 8592   72   71   70 ] final  140.01 input   60.00 | X-H torsion
[ 4356  100   99   97 ] final   81.30 input   60.00 | X-H torsion
[ 8510  202  201  200 ] final  -25.75 input   60.00 | X-H torsion
[ 5330 1065 1064 1063 ] final  -59.11 input   60.00 | X-H torsion
[ 6640 2347 2346 2344 ] final  -60.16 input   60.00 | X-H torsion
[ 4452  380  379  378 ] final   27.73 input   60.00 | X-H torsion
[ 4500  391  390  389 ] final  -83.38 input   60.00 | X-H torsion

> <Gold.Protein.ActiveResidues>
 THR8    THR9    PRO10   ILE11   TYR12   TYR13   VAL14   ASN15   ALA16   HIS19  
 HIS22   SER25   VAL29   MET46   THR47   GLY48   THR49   ASP50   GLU51   HIS52  
 GLY53   GLN54   LYS55   VAL56   ALA57   GLU58   THR71   PHE78   ILE93   THR95  
 THR96   HIS100  GLU101  VAL104  TRP108  TYR126  VAL128  SER129  ASP130  GLU131 
 SER132  LEU210  SER211  ILE212  SER213  ARG214  LYS215  ARG216  SER218  VAL219 
 MET220  ASN221  TRP222  SER223  ILE224  PRO225  VAL226  HIS232  CYS233  ILE234 
 TYR235  VAL236  TRP237  LEU238  ASP239  ALA240  LEU241  PHE242  ASN243  TYR244 
 TYR245  THR246  HIS275  VAL276  VAL277  GLY278  LYS279  ASP280  ILE281  LEU282 
 LYS283  PHE284  HIS285  ALA286  ILE287  TYR288  TRP289  PRO290  PHE292  LEU304 
 TRP309 

> <Gold.Protein.RotatedAtoms>
  -32.7359   -8.4643   -5.8006 H   0  0  0  0  0  0  0  0  0  0  0  0  # atno 4356 bound_to 100 
  -31.2083   -9.7601   -8.4753 H   0  0  0  0  0  0  0  0  0  0  0  0  # atno 4452 bound_to 380 
  -45.2529  -11.9364  -15.7261 H   0  0  0  0  0  0  0  0  0  0  0  0  # atno 4464 bound_to 112 
  -33.6288  -10.3184  -16.1153 H   0  0  0  0  0  0  0  0  0  0  0  0  # atno 4500 bound_to 391 
  -30.4957  -16.6003   -2.8968 H   0  0  0  0  0  0  0  0  0  0  0  0  # atno 4818 bound_to 65  
  -49.5342  -10.8928  -13.4315 H   0  0  0  0  0  0  0  0  0  0  0  0  # atno 4839 bound_to 441 
  -48.3629  -11.1994  -14.5635 H   0  0  0  0  0  0  0  0  0  0  0  0  # atno 4840 bound_to 441 
  -48.0789  -11.5346  -12.9652 H   0  0  0  0  0  0  0  0  0  0  0  0  # atno 4841 bound_to 441 
  -37.1465  -18.2207  -16.5138 H   0  0  0  0  0  0  0  0  0  0  0  0  # atno 4985 bound_to 758 
  -54.7122  -16.7269  -15.2374 H   0  0  0  0  0  0  0  0  0  0  0  0  # atno 5271 bound_to 1023
  -53.8127  -16.0978   -7.7290 H   0  0  0  0  0  0  0  0  0  0  0  0  # atno 5330 bound_to 1065
  -53.3200  -16.8297  -17.8815 H   0  0  0  0  0  0  0  0  0  0  0  0  # atno 6036 bound_to 1776
  -45.2390  -16.9887  -19.6503 H   0  0  0  0  0  0  0  0  0  0  0  0  # atno 6078 bound_to 1819
  -48.8682  -15.1218  -11.3867 H   0  0  0  0  0  0  0  0  0  0  0  0  # atno 6166 bound_to 1916
  -34.3177  -14.9589   -4.9722 H   0  0  0  0  0  0  0  0  0  0  0  0  # atno 6268 bound_to 1997
  -49.5422  -21.1011   -2.6918 H   0  0  0  0  0  0  0  0  0  0  0  0  # atno 6640 bound_to 2347
  -34.9204   -6.5606   -1.1630 H   0  0  0  0  0  0  0  0  0  0  0  0  # atno 8510 bound_to 202 
  -31.4407   -8.4910   -4.2410 H   0  0  0  0  0  0  0  0  0  0  0  0  # atno 8592 bound_to 72  
  -44.9517  -10.7140  -16.7571 LP  0  0  0  0  0  0  0  0  0  0  0  0  # atno 8618 bound_to 112 
  -46.2044  -10.6164  -15.7142 LP  0  0  0  0  0  0  0  0  0  0  0  0  # atno 8619 bound_to 112 
  -38.3008  -17.4000  -17.3151 LP  0  0  0  0  0  0  0  0  0  0  0  0  # atno 8637 bound_to 758 
  -38.3806  -17.5513  -15.6911 LP  0  0  0  0  0  0  0  0  0  0  0  0  # atno 8638 bound_to 758 
  -54.2389  -17.8887  -14.2010 LP  0  0  0  0  0  0  0  0  0  0  0  0  # atno 8642 bound_to 1023
  -54.5168  -16.3728  -13.6612 LP  0  0  0  0  0  0  0  0  0  0  0  0  # atno 8643 bound_to 1023
  -54.7630  -17.4849  -17.5116 LP  0  0  0  0  0  0  0  0  0  0  0  0  # atno 8662 bound_to 1776
  -54.6803  -16.1959  -18.5109 LP  0  0  0  0  0  0  0  0  0  0  0  0  # atno 8663 bound_to 1776
  -45.1446  -17.8106  -18.2490 LP  0  0  0  0  0  0  0  0  0  0  0  0  # atno 8672 bound_to 1819
  -46.5101  -17.8689  -19.1427 LP  0  0  0  0  0  0  0  0  0  0  0  0  # atno 8673 bound_to 1819
  -50.1992  -15.8004  -10.7418 LP  0  0  0  0  0  0  0  0  0  0  0  0  # atno 8684 bound_to 1916
  -50.1952  -15.3293  -12.3053 LP  0  0  0  0  0  0  0  0  0  0  0  0  # atno 8685 bound_to 1916
  -31.6987  -16.2220   -3.9253 LP  0  0  0  0  0  0  0  0  0  0  0  0  # atno 8712 bound_to 65  
  -31.0866  -15.0844   -2.9264 LP  0  0  0  0  0  0  0  0  0  0  0  0  # atno 8713 bound_to 65  
  -35.2186  -15.8770   -3.9755 LP  0  0  0  0  0  0  0  0  0  0  0  0  # atno 8724 bound_to 1997
  -35.6850  -15.6477   -5.5235 LP  0  0  0  0  0  0  0  0  0  0  0  0  # atno 8725 bound_to 1997
  -32.3862   -9.6270   -3.5602 LP  0  0  0  0  0  0  0  0  0  0  0  0  # atno 8747 bound_to 72  
  -32.6986   -9.1006   -5.0741 LP  0  0  0  0  0  0  0  0  0  0  0  0  # atno 8748 bound_to 72  
  -33.1808   -6.9628   -5.3582 LP  0  0  0  0  0  0  0  0  0  0  0  0  # atno 8749 bound_to 100 
  -31.9819   -7.1748   -6.4465 LP  0  0  0  0  0  0  0  0  0  0  0  0  # atno 8750 bound_to 100 
  -35.5054   -7.6983   -2.1687 LP  0  0  0  0  0  0  0  0  0  0  0  0  # atno 8754 bound_to 202 
  -35.4536   -6.1358   -2.6405 LP  0  0  0  0  0  0  0  0  0  0  0  0  # atno 8755 bound_to 202 
  -54.5832  -14.9920   -6.8171 LP  0  0  0  0  0  0  0  0  0  0  0  0  # atno 8775 bound_to 1065
  -54.3633  -14.7280   -8.4135 LP  0  0  0  0  0  0  0  0  0  0  0  0  # atno 8776 bound_to 1065
  -48.9469  -19.6966   -2.1253 LP  0  0  0  0  0  0  0  0  0  0  0  0  # atno 8779 bound_to 2347
  -49.2022  -20.9480   -1.1078 LP  0  0  0  0  0  0  0  0  0  0  0  0  # atno 8780 bound_to 2347
  -30.7310   -8.8826   -9.7600 LP  0  0  0  0  0  0  0  0  0  0  0  0  # atno 8787 bound_to 380 
  -30.3587   -8.3909   -8.2479 LP  0  0  0  0  0  0  0  0  0  0  0  0  # atno 8788 bound_to 380 

$$$$
