unknown|11k_best|sdf|8269|dock6
  -GOLD-   3 721 0303D 1   1.00000     0.00000

 27 28  0  0  0  0  0  0  0  0  1 V2000
  -50.7984  -16.5025  -16.9659 C   0  0  0  0  0  0  0  0  0  0  0  0
  -49.7763  -15.3845  -17.1317 C   0  0  0  0  0  0  0  0  0  0  0  0
  -48.9971  -15.2292  -15.9497 O   0  0  0  0  0  0  0  0  0  0  0  0
  -47.8308  -15.9706  -15.7392 C   0  0  0  0  0  0  0  0  0  0  0  0
  -47.2552  -16.7373  -16.7443 C   0  0  0  0  0  0  0  0  0  0  0  0
  -46.1134  -17.4835  -16.4870 C   0  0  0  0  0  0  0  0  0  0  0  0
  -45.6065  -17.4575  -15.1959 C   0  0  0  0  0  0  0  0  0  0  0  0
  -46.1878  -16.6556  -14.2214 C   0  0  0  0  0  0  0  0  0  0  0  0
  -47.1525  -15.7117  -14.5543 C   0  0  0  0  0  0  0  0  0  0  0  0
  -47.1028  -14.3327  -13.9732 C   0  0  0  0  0  0  0  0  0  0  0  0
  -46.2397  -14.2694  -12.7440 C   0  0  0  0  0  0  0  0  0  0  0  0
  -46.7527  -13.2672  -11.7388 C   0  0  0  0  0  0  0  0  0  0  0  0
  -48.2011  -13.3735  -11.7359 N   0  0  0  0  0  0  0  0  0  0  0  0
  -48.7716  -12.2632  -10.5340 S   0  0  0  0  0  0  0  0  0  0  0  0
  -47.8411  -11.0856  -10.5091 O   0  0  0  0  0  0  0  0  0  0  0  0
  -50.1449  -11.7897  -10.9482 O   0  0  0  0  0  0  0  0  0  0  0  0
  -48.8394  -13.1047   -8.9870 C   0  0  0  0  0  0  0  0  0  0  0  0
  -49.4124  -14.4668   -9.1786 C   0  0  0  0  0  0  0  0  0  0  0  0
  -50.7505  -14.6050   -9.4926 C   0  0  0  0  0  0  0  0  0  0  0  0
  -51.3993  -15.7973   -9.1957 C   0  0  0  0  0  0  0  0  0  0  0  0
  -50.8387  -16.7355   -8.3381 C   0  0  0  0  0  0  0  0  0  0  0  0
  -51.6260  -17.4172   -7.3145 C   0  0  0  0  0  0  0  0  0  0  0  0
  -52.8873  -17.3162   -7.2461 O   0  0  0  0  0  0  0  0  0  0  0  0
  -51.0745  -18.5261   -6.6801 O   0  0  0  0  0  0  0  0  0  0  0  0
  -51.8441  -19.4270   -5.9036 C   0  0  0  0  0  0  0  0  0  0  0  0
  -49.4772  -16.6335   -8.1029 C   0  0  0  0  0  0  0  0  0  0  0  0
  -48.7655  -15.5958   -8.6929 C   0  0  0  0  0  0  0  0  0  0  0  0
  1  2  1  0  0  0  0
  2  3  1  0  0  0  0
  3  4  1  0  0  0  0
  4  5  2  0  0  0  0
  5  6  1  0  0  0  0
  6  7  2  0  0  0  0
  7  8  1  0  0  0  0
  8  9  2  0  0  0  0
  9 10  1  0  0  0  0
 10 11  1  0  0  0  0
 11 12  1  0  0  0  0
 12 13  1  0  0  0  0
 13 14  1  0  0  0  0
 14 15  2  0  0  0  0
 14 16  2  0  0  0  0
 14 17  1  0  0  0  0
 17 18  1  0  0  0  0
 18 19  2  0  0  0  0
 19 20  1  0  0  0  0
 20 21  2  0  0  0  0
 21 22  1  0  0  0  0
 22 23  2  0  0  0  0
 22 24  1  0  0  0  0
 24 25  1  0  0  0  0
 21 26  1  0  0  0  0
 26 27  2  0  0  0  0
  9  4  1  0  0  0  0
 27 18  1  0  0  0  0
M  END
>  <zinc_id>  (269) 
ZINC000019933285

>  <smiles>  (269) 
CCOc1ccccc1CCCNS(=O)(=O)Cc1ccc(C(=O)OC)cc1

>  <source_line>  (269) 
269

>  <source_data>  (269) 
ZINC000019933285

>  <source_name>  (269) 


>  <source_label>  (269) 
ZINC000019933285

>  <found_by>  (269) 
ZINC

> <Gold.Version>
5.8.1

> <Gold.Id.Protein>
ID|ID_protein|mol2

> <Gold.Goldscore.Fitness>
64.9575

> <Gold.Goldscore.Internal.Vdw>
1.5754

> <Gold.Goldscore.Internal.Torsion>
-3.1662

> <Gold.Goldscore.External.Vdw>
42.3507

> <Gold.Goldscore.Internal.HBond>
0.0000

> <Gold.Goldscore.External.HBond>
11.2331

> <Gold.Goldscore.Internal.Correction>
2.9171

> <Gold.Goldscore.Hbonds>
donor molecule, donor type, donor heavy atom, donor atom, acceptor molecule, acceptor atom, score
      P1  H   426  4822       L1     3  0.62
      P1  H   441  4841       L1    16  1.00
      P1  H  1916  6166       L1    13  0.34
      P1  H  1065  5330       L1    23  0.99

> <Gold.Goldscore.Internal.Vdw.Weighted>
1.5754

> <Gold.Goldscore.Internal.Torsion.Weighted>
-3.1662

> <Gold.Goldscore.External.Vdw.Weighted>
58.2322

> <Gold.Goldscore.Internal.HBond.Weighted>
0.0000

> <Gold.Goldscore.External.HBond.Weighted>
11.2331

> <Gold.Goldscore.Internal.Correction.Weighted>
2.9171

> <Gold.Protein.RotatedTorsions>
[ 4464  112  111  109 ] final  103.26 input   60.00 | X-H torsion
[ 4839  441  440  439 ] final   32.59 input   60.00 | X-H torsion
[ 4985  758  757  756 ] final -163.11 input   60.00 | X-H torsion
[ 5271 1023 1022 1020 ] final  -93.15 input   60.00 | X-H torsion
[ 6036 1776 1775 1774 ] final -121.39 input   60.00 | X-H torsion
[ 6078 1819 1818 1817 ] final  -35.04 input   60.00 | X-H torsion
[ 6166 1916 1915 1913 ] final  -92.16 input   60.00 | X-H torsion
[ 4818   65   64   63 ] final  -90.05 input   60.00 | X-H torsion
[ 6268 1997 1996 1994 ] final   92.34 input   60.00 | X-H torsion
[ 8592   72   71   70 ] final -119.14 input   60.00 | X-H torsion
[ 4356  100   99   97 ] final  130.59 input   60.00 | X-H torsion
[ 8510  202  201  200 ] final -169.86 input   60.00 | X-H torsion
[ 5330 1065 1064 1063 ] final  -78.99 input   60.00 | X-H torsion
[ 6640 2347 2346 2344 ] final   30.91 input   60.00 | X-H torsion
[ 4452  380  379  378 ] final -165.41 input   60.00 | X-H torsion
[ 4500  391  390  389 ] final  144.23 input   60.00 | X-H torsion

> <Gold.Protein.ActiveResidues>
 THR8    THR9    PRO10   ILE11   TYR12   TYR13   VAL14   ASN15   ALA16   HIS19  
 HIS22   SER25   VAL29   MET46   THR47   GLY48   THR49   ASP50   GLU51   HIS52  
 GLY53   GLN54   LYS55   VAL56   ALA57   GLU58   THR71   PHE78   ILE93   THR95  
 THR96   HIS100  GLU101  VAL104  TRP108  TYR126  VAL128  SER129  ASP130  GLU131 
 SER132  LEU210  SER211  ILE212  SER213  ARG214  LYS215  ARG216  SER218  VAL219 
 MET220  ASN221  TRP222  SER223  ILE224  PRO225  VAL226  HIS232  CYS233  ILE234 
 TYR235  VAL236  TRP237  LEU238  ASP239  ALA240  LEU241  PHE242  ASN243  TYR244 
 TYR245  THR246  HIS275  VAL276  VAL277  GLY278  LYS279  ASP280  ILE281  LEU282 
 LYS283  PHE284  HIS285  ALA286  ILE287  TYR288  TRP289  PRO290  PHE292  LEU304 
 TRP309 

> <Gold.Protein.RotatedAtoms>
  -32.1794   -8.2336   -6.2975 H   0  0  0  0  0  0  0  0  0  0  0  0  # atno 4356 bound_to 100 
  -30.2862   -8.2230   -8.9724 H   0  0  0  0  0  0  0  0  0  0  0  0  # atno 4452 bound_to 380 
  -46.1107  -11.2457  -15.4010 H   0  0  0  0  0  0  0  0  0  0  0  0  # atno 4464 bound_to 112 
  -35.1170  -10.0889  -16.9322 H   0  0  0  0  0  0  0  0  0  0  0  0  # atno 4500 bound_to 391 
  -30.5035  -16.6144   -2.9095 H   0  0  0  0  0  0  0  0  0  0  0  0  # atno 4818 bound_to 65  
  -49.1472  -10.9087  -14.4196 H   0  0  0  0  0  0  0  0  0  0  0  0  # atno 4839 bound_to 441 
  -47.7693  -11.5472  -13.7554 H   0  0  0  0  0  0  0  0  0  0  0  0  # atno 4840 bound_to 441 
  -49.0595  -11.1709  -12.7853 H   0  0  0  0  0  0  0  0  0  0  0  0  # atno 4841 bound_to 441 
  -38.7151  -17.2704  -16.2421 H   0  0  0  0  0  0  0  0  0  0  0  0  # atno 4985 bound_to 758 
  -54.5710  -16.2598  -13.7952 H   0  0  0  0  0  0  0  0  0  0  0  0  # atno 5271 bound_to 1023
  -53.8818  -16.1003   -7.4132 H   0  0  0  0  0  0  0  0  0  0  0  0  # atno 5330 bound_to 1065
  -53.5026  -17.2408  -17.5786 H   0  0  0  0  0  0  0  0  0  0  0  0  # atno 6036 bound_to 1776
  -44.7679  -17.1921  -18.9806 H   0  0  0  0  0  0  0  0  0  0  0  0  # atno 6078 bound_to 1819
  -48.8758  -15.0883  -11.5074 H   0  0  0  0  0  0  0  0  0  0  0  0  # atno 6166 bound_to 1916
  -35.3002  -15.3361   -5.7183 H   0  0  0  0  0  0  0  0  0  0  0  0  # atno 6268 bound_to 1997
  -49.3702  -21.2913   -1.3803 H   0  0  0  0  0  0  0  0  0  0  0  0  # atno 6640 bound_to 2347
  -35.6082   -7.5153   -2.5003 H   0  0  0  0  0  0  0  0  0  0  0  0  # atno 8510 bound_to 202 
  -32.4861   -8.8857   -5.1543 H   0  0  0  0  0  0  0  0  0  0  0  0  # atno 8592 bound_to 72  
  -44.8090  -11.7400  -16.2431 LP  0  0  0  0  0  0  0  0  0  0  0  0  # atno 8618 bound_to 112 
  -45.4832  -10.2860  -16.5557 LP  0  0  0  0  0  0  0  0  0  0  0  0  # atno 8619 bound_to 112 
  -37.3978  -18.1467  -15.8614 LP  0  0  0  0  0  0  0  0  0  0  0  0  # atno 8637 bound_to 758 
  -37.7039  -17.7617  -17.4186 LP  0  0  0  0  0  0  0  0  0  0  0  0  # atno 8638 bound_to 758 
  -54.6761  -16.8996  -15.2878 LP  0  0  0  0  0  0  0  0  0  0  0  0  # atno 8642 bound_to 1023
  -54.2218  -17.8323  -14.0267 LP  0  0  0  0  0  0  0  0  0  0  0  0  # atno 8643 bound_to 1023
  -55.1148  -17.1737  -17.7903 LP  0  0  0  0  0  0  0  0  0  0  0  0  # atno 8662 bound_to 1776
  -54.1447  -16.0932  -18.5373 LP  0  0  0  0  0  0  0  0  0  0  0  0  # atno 8663 bound_to 1776
  -45.9332  -18.1180  -18.3227 LP  0  0  0  0  0  0  0  0  0  0  0  0  # atno 8672 bound_to 1819
  -46.1960  -17.3566  -19.7433 LP  0  0  0  0  0  0  0  0  0  0  0  0  # atno 8673 bound_to 1819
  -50.0922  -15.7806  -10.6774 LP  0  0  0  0  0  0  0  0  0  0  0  0  # atno 8684 bound_to 1916
  -50.2944  -15.3828  -12.2482 LP  0  0  0  0  0  0  0  0  0  0  0  0  # atno 8685 bound_to 1916
  -31.7061  -16.2028   -3.9255 LP  0  0  0  0  0  0  0  0  0  0  0  0  # atno 8712 bound_to 65  
  -31.0714  -15.0895   -2.9135 LP  0  0  0  0  0  0  0  0  0  0  0  0  # atno 8713 bound_to 65  
  -34.2890  -15.1116   -4.4632 LP  0  0  0  0  0  0  0  0  0  0  0  0  # atno 8724 bound_to 1997
  -35.6252  -16.0332   -4.2843 LP  0  0  0  0  0  0  0  0  0  0  0  0  # atno 8725 bound_to 1997
  -31.4185   -8.6173   -3.9558 LP  0  0  0  0  0  0  0  0  0  0  0  0  # atno 8747 bound_to 72  
  -32.6134   -9.7128   -3.7588 LP  0  0  0  0  0  0  0  0  0  0  0  0  # atno 8748 bound_to 72  
  -33.3197   -7.7294   -5.2518 LP  0  0  0  0  0  0  0  0  0  0  0  0  # atno 8749 bound_to 100 
  -32.4034   -6.6405   -6.0525 LP  0  0  0  0  0  0  0  0  0  0  0  0  # atno 8750 bound_to 100 
  -35.3015   -5.9248   -2.3449 LP  0  0  0  0  0  0  0  0  0  0  0  0  # atno 8754 bound_to 202 
  -34.9647   -6.9479   -1.1176 LP  0  0  0  0  0  0  0  0  0  0  0  0  # atno 8755 bound_to 202 
  -54.6725  -14.7390   -7.0013 LP  0  0  0  0  0  0  0  0  0  0  0  0  # atno 8775 bound_to 1065
  -54.2044  -14.9786   -8.5472 LP  0  0  0  0  0  0  0  0  0  0  0  0  # atno 8776 bound_to 1065
  -49.4360  -20.6895   -2.8908 LP  0  0  0  0  0  0  0  0  0  0  0  0  # atno 8779 bound_to 2347
  -48.8863  -19.7636   -1.6631 LP  0  0  0  0  0  0  0  0  0  0  0  0  # atno 8780 bound_to 2347
  -30.9157   -9.3193   -7.9477 LP  0  0  0  0  0  0  0  0  0  0  0  0  # atno 8787 bound_to 380 
  -31.1027   -9.5022   -9.5596 LP  0  0  0  0  0  0  0  0  0  0  0  0  # atno 8788 bound_to 380 

$$$$
