unknown|11k_best|sdf|8289|dock9
  -GOLD-   3 721 0563D 1   1.00000     0.00000

 31 34  0  0  0  0  0  0  0  0  1 V2000
  -42.5287  -18.7993  -17.9955 C   0  0  0  0  0  0  0  0  0  0  0  0
  -43.2926  -19.1013  -16.7199 C   0  0  0  0  0  0  0  0  0  0  0  0
  -43.0316  -18.0504  -15.7987 O   0  0  0  0  0  0  0  0  0  0  0  0
  -44.0395  -17.2491  -15.2700 C   0  0  0  0  0  0  0  0  0  0  0  0
  -43.7679  -16.2155  -14.4046 C   0  0  0  0  0  0  0  0  0  0  0  0
  -44.7593  -15.3723  -13.9394 C   0  0  0  0  0  0  0  0  0  0  0  0
  -46.0194  -15.4856  -14.5009 C   0  0  0  0  0  0  0  0  0  0  0  0
  -47.2027  -14.8687  -13.8364 C   0  0  0  0  0  0  0  0  0  0  0  0
  -46.8012  -13.5557  -13.2409 C   0  0  0  0  0  0  0  0  0  0  0  0
  -46.4607  -13.3939  -11.9424 N   0  0  0  0  0  0  0  0  0  0  0  0
  -45.5641  -12.3854  -11.8183 C   0  0  0  0  0  0  0  0  0  0  0  0
  -44.5846  -12.2015  -10.7380 C   0  0  0  0  0  0  0  0  0  0  0  0
  -43.7065  -11.1392  -10.9122 C   0  0  0  0  0  0  0  0  0  0  0  0
  -42.3775  -11.2034  -10.5133 C   0  0  0  0  0  0  0  0  0  0  0  0
  -42.0711  -12.1094   -9.5048 C   0  0  0  0  0  0  0  0  0  0  0  0
  -42.9654  -13.1300   -9.2065 C   0  0  0  0  0  0  0  0  0  0  0  0
  -44.0882  -13.2732  -10.0065 C   0  0  0  0  0  0  0  0  0  0  0  0
  -42.7874  -13.8200   -8.0640 N   0  0  0  0  0  0  0  0  0  0  0  0
  -41.9505  -13.3716   -7.0965 C   0  0  0  0  0  0  0  0  0  0  0  0
  -42.2723  -13.5568   -5.6473 C   0  0  0  0  0  0  0  0  0  0  0  0
  -40.9420  -12.4849   -7.4539 C   0  0  0  0  0  0  0  0  0  0  0  0
  -40.3909  -11.8355   -6.5143 O   0  0  0  0  0  0  0  0  0  0  0  0
  -41.0330  -11.8950   -8.6673 N   0  0  0  0  0  0  0  0  0  0  0  0
  -40.1446  -10.7790   -8.9625 C   0  0  0  0  0  0  0  0  0  0  0  0
  -45.4463  -11.8989  -13.0779 N   0  0  0  0  0  0  0  0  0  0  0  0
  -46.2866  -12.5247  -13.8631 O   0  0  0  0  0  0  0  0  0  0  0  0
  -46.2926  -16.4942  -15.4157 C   0  0  0  0  0  0  0  0  0  0  0  0
  -45.3135  -17.4235  -15.7413 C   0  0  0  0  0  0  0  0  0  0  0  0
  -45.6654  -18.5839  -16.4370 O   0  0  0  0  0  0  0  0  0  0  0  0
  -47.0244  -18.6984  -16.8516 C   0  0  0  0  0  0  0  0  0  0  0  0
  -47.2790  -20.0692  -17.4657 C   0  0  0  0  0  0  0  0  0  0  0  0
  1  2  1  0  0  0  0
  2  3  1  0  0  0  0
  3  4  1  0  0  0  0
  4  5  2  0  0  0  0
  5  6  1  0  0  0  0
  6  7  2  0  0  0  0
  7  8  1  0  0  0  0
  8  9  1  0  0  0  0
  9 10  2  0  0  0  0
 10 11  1  0  0  0  0
 11 12  1  0  0  0  0
 12 13  2  0  0  0  0
 13 14  1  0  0  0  0
 14 15  2  0  0  0  0
 15 16  1  0  0  0  0
 16 17  2  0  0  0  0
 16 18  1  0  0  0  0
 18 19  2  0  0  0  0
 19 20  1  0  0  0  0
 19 21  1  0  0  0  0
 21 22  2  0  0  0  0
 21 23  1  0  0  0  0
 23 24  1  0  0  0  0
 11 25  2  0  0  0  0
 25 26  1  0  0  0  0
  7 27  1  0  0  0  0
 27 28  2  0  0  0  0
 28 29  1  0  0  0  0
 29 30  1  0  0  0  0
 30 31  1  0  0  0  0
 28  4  1  0  0  0  0
 26  9  1  0  0  0  0
 17 12  1  0  0  0  0
 23 15  1  0  0  0  0
M  END
>  <zinc_id>  (289) 
ZINC000064890298

>  <smiles>  (289) 
CCOc1ccc(Cc2nc(-c3ccc4c(c3)nc(C)c(=O)n4C)no2)cc1OCC

>  <source_line>  (289) 
289

>  <source_data>  (289) 
ZINC000064890298

>  <source_name>  (289) 


>  <source_label>  (289) 
ZINC000064890298

>  <found_by>  (289) 
ZINC

> <Gold.Version>
5.8.1

> <Gold.Id.Protein>
ID|ID_protein|mol2

> <Gold.Goldscore.Fitness>
69.0078

> <Gold.Goldscore.Internal.Vdw>
-0.6329

> <Gold.Goldscore.Internal.Torsion>
-2.8016

> <Gold.Goldscore.External.Vdw>
48.8290

> <Gold.Goldscore.Internal.HBond>
0.0000

> <Gold.Goldscore.External.HBond>
6.1064

> <Gold.Goldscore.Internal.Correction>
0.8040

> <Gold.Goldscore.Hbonds>
donor molecule, donor type, donor heavy atom, donor atom, acceptor molecule, acceptor atom, score
      P1  H   112  4464       L1    26  0.05
      P1  H   441  4840       L1    26  1.00

> <Gold.Goldscore.Internal.Vdw.Weighted>
-0.6329

> <Gold.Goldscore.Internal.Torsion.Weighted>
-2.8016

> <Gold.Goldscore.External.Vdw.Weighted>
67.1399

> <Gold.Goldscore.Internal.HBond.Weighted>
0.0000

> <Gold.Goldscore.External.HBond.Weighted>
6.1064

> <Gold.Goldscore.Internal.Correction.Weighted>
0.8040

> <Gold.Protein.RotatedTorsions>
[ 4464  112  111  109 ] final   60.96 input   60.00 | X-H torsion
[ 4839  441  440  439 ] final   27.13 input   60.00 | X-H torsion
[ 4985  758  757  756 ] final -122.61 input   60.00 | X-H torsion
[ 5271 1023 1022 1020 ] final   18.12 input   60.00 | X-H torsion
[ 6036 1776 1775 1774 ] final  157.14 input   60.00 | X-H torsion
[ 6078 1819 1818 1817 ] final  -28.71 input   60.00 | X-H torsion
[ 6166 1916 1915 1913 ] final  -35.54 input   60.00 | X-H torsion
[ 4818   65   64   63 ] final  -56.75 input   60.00 | X-H torsion
[ 6268 1997 1996 1994 ] final  161.12 input   60.00 | X-H torsion
[ 8592   72   71   70 ] final  104.80 input   60.00 | X-H torsion
[ 4356  100   99   97 ] final -145.25 input   60.00 | X-H torsion
[ 8510  202  201  200 ] final -177.95 input   60.00 | X-H torsion
[ 5330 1065 1064 1063 ] final  -43.13 input   60.00 | X-H torsion
[ 6640 2347 2346 2344 ] final  -67.08 input   60.00 | X-H torsion
[ 4452  380  379  378 ] final  -59.88 input   60.00 | X-H torsion
[ 4500  391  390  389 ] final  -99.35 input   60.00 | X-H torsion

> <Gold.Protein.ActiveResidues>
 THR8    THR9    PRO10   ILE11   TYR12   TYR13   VAL14   ASN15   ALA16   HIS19  
 HIS22   SER25   VAL29   MET46   THR47   GLY48   THR49   ASP50   GLU51   HIS52  
 GLY53   GLN54   LYS55   VAL56   ALA57   GLU58   THR71   PHE78   ILE93   THR95  
 THR96   HIS100  GLU101  VAL104  TRP108  TYR126  VAL128  SER129  ASP130  GLU131 
 SER132  LEU210  SER211  ILE212  SER213  ARG214  LYS215  ARG216  SER218  VAL219 
 MET220  ASN221  TRP222  SER223  ILE224  PRO225  VAL226  HIS232  CYS233  ILE234 
 TYR235  VAL236  TRP237  LEU238  ASP239  ALA240  LEU241  PHE242  ASN243  TYR244 
 TYR245  THR246  HIS275  VAL276  VAL277  GLY278  LYS279  ASP280  ILE281  LEU282 
 LYS283  PHE284  HIS285  ALA286  ILE287  TYR288  TRP289  PRO290  PHE292  LEU304 
 TRP309 

> <Gold.Protein.RotatedAtoms>
  -32.0652   -6.9861   -6.3697 H   0  0  0  0  0  0  0  0  0  0  0  0  # atno 4356 bound_to 100 
  -30.9974   -9.3266   -9.6784 H   0  0  0  0  0  0  0  0  0  0  0  0  # atno 4452 bound_to 380 
  -45.6833  -11.7662  -15.4530 H   0  0  0  0  0  0  0  0  0  0  0  0  # atno 4464 bound_to 112 
  -33.6769  -10.1042  -16.2549 H   0  0  0  0  0  0  0  0  0  0  0  0  # atno 4500 bound_to 391 
  -30.4002  -16.1583   -2.6468 H   0  0  0  0  0  0  0  0  0  0  0  0  # atno 4818 bound_to 65  
  -49.2158  -10.8894  -14.3628 H   0  0  0  0  0  0  0  0  0  0  0  0  # atno 4839 bound_to 441 
  -47.7781  -11.5312  -13.8447 H   0  0  0  0  0  0  0  0  0  0  0  0  # atno 4840 bound_to 441 
  -48.9820  -11.2062  -12.7528 H   0  0  0  0  0  0  0  0  0  0  0  0  # atno 4841 bound_to 441 
  -38.6434  -17.2357  -16.8852 H   0  0  0  0  0  0  0  0  0  0  0  0  # atno 4985 bound_to 758 
  -54.2197  -17.7613  -13.9025 H   0  0  0  0  0  0  0  0  0  0  0  0  # atno 5271 bound_to 1023
  -53.7950  -16.0243   -7.9781 H   0  0  0  0  0  0  0  0  0  0  0  0  # atno 5330 bound_to 1065
  -54.6911  -17.5102  -17.4876 H   0  0  0  0  0  0  0  0  0  0  0  0  # atno 6036 bound_to 1776
  -44.7897  -17.1462  -19.0706 H   0  0  0  0  0  0  0  0  0  0  0  0  # atno 6078 bound_to 1819
  -49.3666  -15.0461  -12.2463 H   0  0  0  0  0  0  0  0  0  0  0  0  # atno 6166 bound_to 1916
  -35.8682  -15.9297   -5.0524 H   0  0  0  0  0  0  0  0  0  0  0  0  # atno 6268 bound_to 1997
  -49.5223  -21.0110   -2.7569 H   0  0  0  0  0  0  0  0  0  0  0  0  # atno 6640 bound_to 2347
  -35.6323   -7.4256   -2.5943 H   0  0  0  0  0  0  0  0  0  0  0  0  # atno 8510 bound_to 202 
  -31.4713   -8.7715   -3.7499 H   0  0  0  0  0  0  0  0  0  0  0  0  # atno 8592 bound_to 72  
  -44.7349  -11.1974  -16.6467 LP  0  0  0  0  0  0  0  0  0  0  0  0  # atno 8618 bound_to 112 
  -45.9878  -10.3043  -16.0997 LP  0  0  0  0  0  0  0  0  0  0  0  0  # atno 8619 bound_to 112 
  -37.9096  -17.8612  -15.5743 LP  0  0  0  0  0  0  0  0  0  0  0  0  # atno 8637 bound_to 758 
  -37.2643  -18.0821  -17.0581 LP  0  0  0  0  0  0  0  0  0  0  0  0  # atno 8638 bound_to 758 
  -54.6082  -16.1810  -13.9087 LP  0  0  0  0  0  0  0  0  0  0  0  0  # atno 8642 bound_to 1023
  -54.6435  -17.0389  -15.2978 LP  0  0  0  0  0  0  0  0  0  0  0  0  # atno 8643 bound_to 1023
  -54.7497  -16.2303  -18.4909 LP  0  0  0  0  0  0  0  0  0  0  0  0  # atno 8662 bound_to 1776
  -53.3130  -16.7652  -17.9283 LP  0  0  0  0  0  0  0  0  0  0  0  0  # atno 8663 bound_to 1776
  -45.8402  -18.1038  -18.2783 LP  0  0  0  0  0  0  0  0  0  0  0  0  # atno 8672 bound_to 1819
  -46.2670  -17.4170  -19.6970 LP  0  0  0  0  0  0  0  0  0  0  0  0  # atno 8673 bound_to 1819
  -49.2527  -15.4723  -10.6800 LP  0  0  0  0  0  0  0  0  0  0  0  0  # atno 8684 bound_to 1916
  -50.6396  -15.7336  -11.5014 LP  0  0  0  0  0  0  0  0  0  0  0  0  # atno 8685 bound_to 1916
  -31.4246  -16.6496   -3.8118 LP  0  0  0  0  0  0  0  0  0  0  0  0  # atno 8712 bound_to 65  
  -31.4569  -15.1020   -3.2917 LP  0  0  0  0  0  0  0  0  0  0  0  0  # atno 8713 bound_to 65  
  -34.6155  -14.9780   -5.4682 LP  0  0  0  0  0  0  0  0  0  0  0  0  # atno 8724 bound_to 1997
  -34.7268  -15.5690   -3.9500 LP  0  0  0  0  0  0  0  0  0  0  0  0  # atno 8725 bound_to 1997
  -32.7674   -9.7301   -3.9718 LP  0  0  0  0  0  0  0  0  0  0  0  0  # atno 8747 bound_to 72  
  -32.2865   -8.7150   -5.1571 LP  0  0  0  0  0  0  0  0  0  0  0  0  # atno 8748 bound_to 72  
  -32.5712   -8.4737   -5.9465 LP  0  0  0  0  0  0  0  0  0  0  0  0  # atno 8749 bound_to 100 
  -33.2669   -7.1526   -5.2851 LP  0  0  0  0  0  0  0  0  0  0  0  0  # atno 8750 bound_to 100 
  -35.2488   -5.8870   -2.2287 LP  0  0  0  0  0  0  0  0  0  0  0  0  # atno 8754 bound_to 202 
  -34.9933   -7.0761   -1.1391 LP  0  0  0  0  0  0  0  0  0  0  0  0  # atno 8755 bound_to 202 
  -54.4820  -15.2215   -6.7406 LP  0  0  0  0  0  0  0  0  0  0  0  0  # atno 8775 bound_to 1065
  -54.4823  -14.5726   -8.2391 LP  0  0  0  0  0  0  0  0  0  0  0  0  # atno 8776 bound_to 1065
  -48.9250  -19.6922   -2.0138 LP  0  0  0  0  0  0  0  0  0  0  0  0  # atno 8779 bound_to 2347
  -49.2441  -21.0432   -1.1539 LP  0  0  0  0  0  0  0  0  0  0  0  0  # atno 8780 bound_to 2347
  -30.2732   -8.2150   -8.7361 LP  0  0  0  0  0  0  0  0  0  0  0  0  # atno 8787 bound_to 380 
  -31.0290   -9.4951   -8.0602 LP  0  0  0  0  0  0  0  0  0  0  0  0  # atno 8788 bound_to 380 

$$$$
