unknown|11k_best|sdf|8325|dock7
  -GOLD-   3 721 1423D 1   1.00000     0.00000

 32 35  0  0  0  0  0  0  0  0  1 V2000
  -51.0315  -16.3559   -8.8226 C   0  0  0  0  0  0  0  0  0  0  0  0
  -49.9029  -15.5663   -9.0801 O   0  0  0  0  0  0  0  0  0  0  0  0
  -49.2658  -14.9134   -8.0252 C   0  0  0  0  0  0  0  0  0  0  0  0
  -49.7206  -15.0118   -6.7165 C   0  0  0  0  0  0  0  0  0  0  0  0
  -48.9621  -14.5363   -5.6557 C   0  0  0  0  0  0  0  0  0  0  0  0
  -47.6099  -14.3802   -5.8833 C   0  0  0  0  0  0  0  0  0  0  0  0
  -47.2232  -14.1186   -7.1916 C   0  0  0  0  0  0  0  0  0  0  0  0
  -48.1571  -14.1000   -8.2214 C   0  0  0  0  0  0  0  0  0  0  0  0
  -47.7496  -13.8357   -9.5469 N   0  0  0  0  0  0  0  0  0  0  0  0
  -46.3589  -13.9094   -9.8825 C   0  0  0  0  0  0  0  0  0  0  0  0
  -45.4483  -14.0180   -9.0343 O   0  0  0  0  0  0  0  0  0  0  0  0
  -45.9562  -13.5875  -11.2558 C   0  0  0  0  0  0  0  0  0  0  0  0
  -44.7466  -13.0836  -11.4637 C   0  0  0  0  0  0  0  0  0  0  0  0
  -43.9261  -12.5542  -10.3649 C   0  0  0  0  0  0  0  0  0  0  0  0
  -43.8201  -11.1820  -10.1696 C   0  0  0  0  0  0  0  0  0  0  0  0
  -42.6187  -10.9440   -9.5210 C   0  0  0  0  0  0  0  0  0  0  0  0
  -42.1997  -12.2009   -9.1074 C   0  0  0  0  0  0  0  0  0  0  0  0
  -41.1869  -12.4484   -8.0774 C   0  0  0  0  0  0  0  0  0  0  0  0
  -40.6488  -11.3835   -7.3696 C   0  0  0  0  0  0  0  0  0  0  0  0
  -39.2984  -11.3836   -7.0435 C   0  0  0  0  0  0  0  0  0  0  0  0
  -38.4917  -12.4662   -7.3111 C   0  0  0  0  0  0  0  0  0  0  0  0
  -39.1215  -13.6540   -7.6557 C   0  0  0  0  0  0  0  0  0  0  0  0
  -38.3942  -14.9209   -7.5258 C   0  0  0  0  0  0  0  0  0  0  0  0
  -37.2072  -14.8775   -7.0849 O   0  0  0  0  0  0  0  0  0  0  0  0
  -39.1585  -16.0485   -7.2238 O   0  0  0  0  0  0  0  0  0  0  0  0
  -40.3955  -13.5781   -8.1576 C   0  0  0  0  0  0  0  0  0  0  0  0
  -42.8099  -13.0561   -9.8734 O   0  0  0  0  0  0  0  0  0  0  0  0
  -47.0503  -13.4515  -12.2209 C   0  0  0  0  0  0  0  0  0  0  0  0
  -46.7114  -13.4866  -13.4367 O   0  0  0  0  0  0  0  0  0  0  0  0
  -48.4163  -13.3060  -11.8128 N   0  0  0  0  0  0  0  0  0  0  0  0
  -48.7056  -13.2120  -10.4128 C   0  0  0  0  0  0  0  0  0  0  0  0
  -49.8675  -12.2053   -9.8338 S   0  0  0  0  0  0  0  0  0  0  0  0
  1  2  1  0  0  0  0
  2  3  1  0  0  0  0
  3  4  2  0  0  0  0
  4  5  1  0  0  0  0
  5  6  2  0  0  0  0
  6  7  1  0  0  0  0
  7  8  2  0  0  0  0
  8  9  1  0  0  0  0
  9 10  1  0  0  0  0
 10 11  2  0  0  0  0
 10 12  1  0  0  0  0
 12 13  2  0  0  0  0
 13 14  1  0  0  0  0
 14 15  2  0  0  0  0
 15 16  1  0  0  0  0
 16 17  2  0  0  0  0
 17 18  1  0  0  0  0
 18 19  2  0  0  0  0
 19 20  1  0  0  0  0
 20 21  2  0  0  0  0
 21 22  1  0  0  0  0
 22 23  1  0  0  0  0
 23 24  2  0  0  0  0
 23 25  1  0  0  0  0
 22 26  2  0  0  0  0
 17 27  1  0  0  0  0
 12 28  1  0  0  0  0
 28 29  2  0  0  0  0
 28 30  1  0  0  0  0
 30 31  1  0  0  0  0
 31 32  2  0  0  0  0
  8  3  1  0  0  0  0
 31  9  1  0  0  0  0
 27 14  1  0  0  0  0
 26 18  1  0  0  0  0
M  END
>  <zinc_id>  (325) 
ZINC000008430325

>  <smiles>  (325) 
COc1ccccc1N1C(=O)/C(=C\c2ccc(-c3cccc(C(=O)O)c3)o2)C(=O)NC1=S

>  <source_line>  (325) 
325

>  <source_data>  (325) 
ZINC000008430325

>  <source_name>  (325) 


>  <source_label>  (325) 
ZINC000008430325

>  <found_by>  (325) 
ZINC

> <Gold.Version>
5.8.1

> <Gold.Id.Protein>
ID|ID_protein|mol2

> <Gold.Goldscore.Fitness>
65.0990

> <Gold.Goldscore.Internal.Vdw>
1.8407

> <Gold.Goldscore.Internal.Torsion>
-1.9909

> <Gold.Goldscore.External.Vdw>
38.4242

> <Gold.Goldscore.Internal.HBond>
0.0000

> <Gold.Goldscore.External.HBond>
14.9350

> <Gold.Goldscore.Internal.Correction>
2.5191

> <Gold.Goldscore.Hbonds>
donor molecule, donor type, donor heavy atom, donor atom, acceptor molecule, acceptor atom, score
      P1  H   112  4464       L1    29  0.03
      P1  H   441  4839       L1    29  0.42
      P1  H  1916  6166       L1     2  1.00
      P1  H    83  8591       L1    24  1.00
      P1  H  1997  6268       L1    24  0.72

> <Gold.Goldscore.Internal.Vdw.Weighted>
1.8407

> <Gold.Goldscore.Internal.Torsion.Weighted>
-1.9909

> <Gold.Goldscore.External.Vdw.Weighted>
52.8332

> <Gold.Goldscore.Internal.HBond.Weighted>
0.0000

> <Gold.Goldscore.External.HBond.Weighted>
14.9350

> <Gold.Goldscore.Internal.Correction.Weighted>
2.5191

> <Gold.Protein.RotatedTorsions>
[ 4464  112  111  109 ] final   57.71 input   60.00 | X-H torsion
[ 4839  441  440  439 ] final  162.54 input   60.00 | X-H torsion
[ 4985  758  757  756 ] final -126.93 input   60.00 | X-H torsion
[ 5271 1023 1022 1020 ] final -172.22 input   60.00 | X-H torsion
[ 6036 1776 1775 1774 ] final -108.80 input   60.00 | X-H torsion
[ 6078 1819 1818 1817 ] final -123.58 input   60.00 | X-H torsion
[ 6166 1916 1915 1913 ] final  166.63 input   60.00 | X-H torsion
[ 4818   65   64   63 ] final  158.88 input   60.00 | X-H torsion
[ 6268 1997 1996 1994 ] final  110.32 input   60.00 | X-H torsion
[ 8592   72   71   70 ] final  159.46 input   60.00 | X-H torsion
[ 4356  100   99   97 ] final -126.02 input   60.00 | X-H torsion
[ 8510  202  201  200 ] final  174.04 input   60.00 | X-H torsion
[ 5330 1065 1064 1063 ] final  -20.71 input   60.00 | X-H torsion
[ 6640 2347 2346 2344 ] final  157.04 input   60.00 | X-H torsion
[ 4452  380  379  378 ] final  -87.21 input   60.00 | X-H torsion
[ 4500  391  390  389 ] final  111.27 input   60.00 | X-H torsion

> <Gold.Protein.ActiveResidues>
 THR8    THR9    PRO10   ILE11   TYR12   TYR13   VAL14   ASN15   ALA16   HIS19  
 HIS22   SER25   VAL29   MET46   THR47   GLY48   THR49   ASP50   GLU51   HIS52  
 GLY53   GLN54   LYS55   VAL56   ALA57   GLU58   THR71   PHE78   ILE93   THR95  
 THR96   HIS100  GLU101  VAL104  TRP108  TYR126  VAL128  SER129  ASP130  GLU131 
 SER132  LEU210  SER211  ILE212  SER213  ARG214  LYS215  ARG216  SER218  VAL219 
 MET220  ASN221  TRP222  SER223  ILE224  PRO225  VAL226  HIS232  CYS233  ILE234 
 TYR235  VAL236  TRP237  LEU238  ASP239  ALA240  LEU241  PHE242  ASN243  TYR244 
 TYR245  THR246  HIS275  VAL276  VAL277  GLY278  LYS279  ASP280  ILE281  LEU282 
 LYS283  PHE284  HIS285  ALA286  ILE287  TYR288  TRP289  PRO290  PHE292  LEU304 
 TRP309 

> <Gold.Protein.RotatedAtoms>
  -32.2284   -6.7672   -6.2169 H   0  0  0  0  0  0  0  0  0  0  0  0  # atno 4356 bound_to 100 
  -30.7726   -8.9546   -9.7613 H   0  0  0  0  0  0  0  0  0  0  0  0  # atno 4452 bound_to 380 
  -45.6422  -11.7942  -15.4717 H   0  0  0  0  0  0  0  0  0  0  0  0  # atno 4464 bound_to 112 
  -35.3448  -10.5462  -16.7876 H   0  0  0  0  0  0  0  0  0  0  0  0  # atno 4500 bound_to 391 
  -31.6422  -16.3338   -3.9136 H   0  0  0  0  0  0  0  0  0  0  0  0  # atno 4818 bound_to 65  
  -47.7739  -11.5683  -13.5909 H   0  0  0  0  0  0  0  0  0  0  0  0  # atno 4839 bound_to 441 
  -49.1908  -11.1078  -12.8645 H   0  0  0  0  0  0  0  0  0  0  0  0  # atno 4840 bound_to 441 
  -49.0111  -10.9508  -14.5048 H   0  0  0  0  0  0  0  0  0  0  0  0  # atno 4841 bound_to 441 
  -38.6692  -17.2275  -16.8201 H   0  0  0  0  0  0  0  0  0  0  0  0  # atno 4985 bound_to 758 
  -54.7621  -16.3312  -14.9695 H   0  0  0  0  0  0  0  0  0  0  0  0  # atno 5271 bound_to 1023
  -53.8297  -15.8259   -8.2812 H   0  0  0  0  0  0  0  0  0  0  0  0  # atno 5330 bound_to 1065
  -53.3995  -17.0961  -17.6813 H   0  0  0  0  0  0  0  0  0  0  0  0  # atno 6036 bound_to 1776
  -45.4572  -17.9830  -18.2012 H   0  0  0  0  0  0  0  0  0  0  0  0  # atno 6078 bound_to 1819
  -49.8081  -15.7056  -10.5891 H   0  0  0  0  0  0  0  0  0  0  0  0  # atno 6166 bound_to 1916
  -35.5255  -15.5070   -5.6430 H   0  0  0  0  0  0  0  0  0  0  0  0  # atno 6268 bound_to 1997
  -48.8923  -19.7377   -1.7602 H   0  0  0  0  0  0  0  0  0  0  0  0  # atno 6640 bound_to 2347
  -35.6493   -7.3245   -2.6754 H   0  0  0  0  0  0  0  0  0  0  0  0  # atno 8510 bound_to 202 
  -31.5421   -8.4237   -4.5329 H   0  0  0  0  0  0  0  0  0  0  0  0  # atno 8592 bound_to 72  
  -44.7459  -11.1492  -16.6671 LP  0  0  0  0  0  0  0  0  0  0  0  0  # atno 8618 bound_to 112 
  -46.0181  -10.3244  -16.0604 LP  0  0  0  0  0  0  0  0  0  0  0  0  # atno 8619 bound_to 112 
  -37.8495  -17.8977  -15.5843 LP  0  0  0  0  0  0  0  0  0  0  0  0  # atno 8637 bound_to 758 
  -37.2984  -18.0538  -17.1136 LP  0  0  0  0  0  0  0  0  0  0  0  0  # atno 8638 bound_to 758 
  -54.3276  -17.8718  -14.6763 LP  0  0  0  0  0  0  0  0  0  0  0  0  # atno 8642 bound_to 1023
  -54.3779  -16.7882  -13.4557 LP  0  0  0  0  0  0  0  0  0  0  0  0  # atno 8643 bound_to 1023
  -55.0126  -17.3102  -17.6733 LP  0  0  0  0  0  0  0  0  0  0  0  0  # atno 8662 bound_to 1776
  -54.3507  -16.1024  -18.5508 LP  0  0  0  0  0  0  0  0  0  0  0  0  # atno 8663 bound_to 1776
  -46.4656  -17.6660  -19.4384 LP  0  0  0  0  0  0  0  0  0  0  0  0  # atno 8672 bound_to 1819
  -44.9694  -17.0121  -19.4126 LP  0  0  0  0  0  0  0  0  0  0  0  0  # atno 8673 bound_to 1819
  -50.4928  -15.5141  -12.0528 LP  0  0  0  0  0  0  0  0  0  0  0  0  # atno 8684 bound_to 1916
  -48.9550  -15.0276  -11.7976 LP  0  0  0  0  0  0  0  0  0  0  0  0  # atno 8685 bound_to 1916
  -31.1795  -15.0628   -3.0088 LP  0  0  0  0  0  0  0  0  0  0  0  0  # atno 8712 bound_to 65  
  -30.4513  -16.5120   -2.8190 LP  0  0  0  0  0  0  0  0  0  0  0  0  # atno 8713 bound_to 65  
  -34.2699  -15.0055   -4.7375 LP  0  0  0  0  0  0  0  0  0  0  0  0  # atno 8724 bound_to 1997
  -35.4175  -15.9673   -4.0859 LP  0  0  0  0  0  0  0  0  0  0  0  0  # atno 8725 bound_to 1997
  -32.1315   -9.4770   -3.4416 LP  0  0  0  0  0  0  0  0  0  0  0  0  # atno 8747 bound_to 72  
  -32.8511   -9.3184   -4.8989 LP  0  0  0  0  0  0  0  0  0  0  0  0  # atno 8748 bound_to 72  
  -32.3450   -8.3889   -6.1487 LP  0  0  0  0  0  0  0  0  0  0  0  0  # atno 8749 bound_to 100 
  -33.3288   -7.4577   -5.2368 LP  0  0  0  0  0  0  0  0  0  0  0  0  # atno 8750 bound_to 100 
  -35.1974   -5.8674   -2.1091 LP  0  0  0  0  0  0  0  0  0  0  0  0  # atno 8754 bound_to 202 
  -35.0274   -7.1975   -1.1770 LP  0  0  0  0  0  0  0  0  0  0  0  0  # atno 8755 bound_to 202 
  -54.3121  -15.5460   -6.7525 LP  0  0  0  0  0  0  0  0  0  0  0  0  # atno 8775 bound_to 1065
  -54.6173  -14.4479   -7.9220 LP  0  0  0  0  0  0  0  0  0  0  0  0  # atno 8776 bound_to 1065
  -49.3387  -21.2344   -1.3035 LP  0  0  0  0  0  0  0  0  0  0  0  0  # atno 8779 bound_to 2347
  -49.4648  -20.7833   -2.8679 LP  0  0  0  0  0  0  0  0  0  0  0  0  # atno 8780 bound_to 2347
  -30.3358   -8.3485   -8.3156 LP  0  0  0  0  0  0  0  0  0  0  0  0  # atno 8787 bound_to 380 
  -31.1928   -9.7361   -8.3972 LP  0  0  0  0  0  0  0  0  0  0  0  0  # atno 8788 bound_to 380 

$$$$
