unknown|11k_best|sdf|8249|dock3
  -GOLD-   3 721 0 53D 1   1.00000     0.00000

 27 29  0  0  0  0  0  0  0  0  1 V2000
  -44.2793  -17.9315  -17.0020 C   0  0  0  0  0  0  0  0  0  0  0  0
  -44.5267  -17.4308  -15.6140 C   0  0  0  0  0  0  0  0  0  0  0  0
  -45.7496  -17.6877  -15.0073 C   0  0  0  0  0  0  0  0  0  0  0  0
  -46.3547  -16.7414  -14.1922 C   0  0  0  0  0  0  0  0  0  0  0  0
  -45.7884  -15.4876  -14.0083 C   0  0  0  0  0  0  0  0  0  0  0  0
  -46.7697  -14.0368  -13.8914 S   0  0  0  0  0  0  0  0  0  0  0  0
  -45.9988  -12.8466  -14.3558 O   0  0  0  0  0  0  0  0  0  0  0  0
  -47.9478  -14.2480  -14.8153 O   0  0  0  0  0  0  0  0  0  0  0  0
  -47.3902  -13.8615  -12.3029 N   0  0  0  0  0  0  0  0  0  0  0  0
  -46.8061  -12.9026  -11.4100 C   0  0  0  0  0  0  0  0  0  0  0  0
  -45.5614  -12.3690  -11.5027 N   0  0  0  0  0  0  0  0  0  0  0  0
  -45.4089  -11.3406  -10.6481 C   0  0  0  0  0  0  0  0  0  0  0  0
  -44.4333  -10.3521  -10.7383 C   0  0  0  0  0  0  0  0  0  0  0  0
  -44.1073   -9.6158   -9.6287 C   0  0  0  0  0  0  0  0  0  0  0  0
  -44.0644  -10.2775   -8.4067 C   0  0  0  0  0  0  0  0  0  0  0  0
  -43.3921   -9.7203   -7.2983 N   0  0  0  0  0  0  0  0  0  0  0  0
  -42.5646   -8.5801   -7.3419 C   0  0  0  0  0  0  0  0  0  0  0  0
  -41.8546   -8.3887   -6.3077 O   0  0  0  0  0  0  0  0  0  0  0  0
  -42.0488   -7.9730   -8.6078 C   0  0  0  0  0  0  0  0  0  0  0  0
  -40.9496   -6.9797   -8.3631 C   0  0  0  0  0  0  0  0  0  0  0  0
  -39.5939   -7.6036   -8.2192 C   0  0  0  0  0  0  0  0  0  0  0  0
  -40.9701   -5.8674   -9.3926 C   0  0  0  0  0  0  0  0  0  0  0  0
  -45.0490  -11.2461   -8.2457 C   0  0  0  0  0  0  0  0  0  0  0  0
  -45.7430  -11.7201   -9.3520 C   0  0  0  0  0  0  0  0  0  0  0  0
  -46.9766  -12.8643   -9.6966 S   0  0  0  0  0  0  0  0  0  0  0  0
  -44.4312  -15.4053  -14.2773 C   0  0  0  0  0  0  0  0  0  0  0  0
  -43.8204  -16.3594  -15.0810 C   0  0  0  0  0  0  0  0  0  0  0  0
  1  2  1  0  0  0  0
  2  3  2  0  0  0  0
  3  4  1  0  0  0  0
  4  5  2  0  0  0  0
  5  6  1  0  0  0  0
  6  7  2  0  0  0  0
  6  8  2  0  0  0  0
  6  9  1  0  0  0  0
  9 10  1  0  0  0  0
 10 11  2  0  0  0  0
 11 12  1  0  0  0  0
 12 13  2  0  0  0  0
 13 14  1  0  0  0  0
 14 15  2  0  0  0  0
 15 16  1  0  0  0  0
 16 17  1  0  0  0  0
 17 18  2  0  0  0  0
 17 19  1  0  0  0  0
 19 20  1  0  0  0  0
 20 21  1  0  0  0  0
 20 22  1  0  0  0  0
 15 23  1  0  0  0  0
 23 24  2  0  0  0  0
 24 25  1  0  0  0  0
  5 26  1  0  0  0  0
 26 27  2  0  0  0  0
 27  2  1  0  0  0  0
 25 10  1  0  0  0  0
 24 12  1  0  0  0  0
M  END
>  <zinc_id>  (249) 
ZINC000015861930

>  <smiles>  (249) 
Cc1ccc(S(=O)(=O)Nc2nc3ccc(NC(=O)CC(C)C)cc3s2)cc1

>  <source_line>  (249) 
249

>  <source_data>  (249) 
ZINC000015861930

>  <source_name>  (249) 


>  <source_label>  (249) 
ZINC000015861930

>  <found_by>  (249) 
ZINC

> <Gold.Version>
5.8.1

> <Gold.Id.Protein>
ID|ID_protein|mol2

> <Gold.Goldscore.Fitness>
65.3363

> <Gold.Goldscore.Internal.Vdw>
1.6954

> <Gold.Goldscore.Internal.Torsion>
-8.0608

> <Gold.Goldscore.External.Vdw>
39.0867

> <Gold.Goldscore.Internal.HBond>
0.0000

> <Gold.Goldscore.External.HBond>
13.3348

> <Gold.Goldscore.Internal.Correction>
-4.6227

> <Gold.Goldscore.Hbonds>
donor molecule, donor type, donor heavy atom, donor atom, acceptor molecule, acceptor atom, score
      P1  H   112  4464       L1     7  0.67
      P1  H   441  4840       L1     7  1.00
      P1  H  1916  6166       L1     9  1.00

> <Gold.Goldscore.Internal.Vdw.Weighted>
1.6954

> <Gold.Goldscore.Internal.Torsion.Weighted>
-8.0608

> <Gold.Goldscore.External.Vdw.Weighted>
53.7442

> <Gold.Goldscore.Internal.HBond.Weighted>
0.0000

> <Gold.Goldscore.External.HBond.Weighted>
13.3348

> <Gold.Goldscore.Internal.Correction.Weighted>
-4.6227

> <Gold.Protein.RotatedTorsions>
[ 4464  112  111  109 ] final   63.35 input   60.00 | X-H torsion
[ 4839  441  440  439 ] final   24.85 input   60.00 | X-H torsion
[ 4985  758  757  756 ] final  116.52 input   60.00 | X-H torsion
[ 5271 1023 1022 1020 ] final   92.89 input   60.00 | X-H torsion
[ 6036 1776 1775 1774 ] final  -76.14 input   60.00 | X-H torsion
[ 6078 1819 1818 1817 ] final   26.61 input   60.00 | X-H torsion
[ 6166 1916 1915 1913 ] final  -80.99 input   60.00 | X-H torsion
[ 4818   65   64   63 ] final  -75.15 input   60.00 | X-H torsion
[ 6268 1997 1996 1994 ] final   -2.01 input   60.00 | X-H torsion
[ 8592   72   71   70 ] final -154.69 input   60.00 | X-H torsion
[ 4356  100   99   97 ] final  -87.35 input   60.00 | X-H torsion
[ 8510  202  201  200 ] final  126.71 input   60.00 | X-H torsion
[ 5330 1065 1064 1063 ] final  -82.25 input   60.00 | X-H torsion
[ 6640 2347 2346 2344 ] final  115.59 input   60.00 | X-H torsion
[ 4452  380  379  378 ] final -154.72 input   60.00 | X-H torsion
[ 4500  391  390  389 ] final -145.18 input   60.00 | X-H torsion

> <Gold.Protein.ActiveResidues>
 THR8    THR9    PRO10   ILE11   TYR12   TYR13   VAL14   ASN15   ALA16   HIS19  
 HIS22   SER25   VAL29   MET46   THR47   GLY48   THR49   ASP50   GLU51   HIS52  
 GLY53   GLN54   LYS55   VAL56   ALA57   GLU58   THR71   PHE78   ILE93   THR95  
 THR96   HIS100  GLU101  VAL104  TRP108  TYR126  VAL128  SER129  ASP130  GLU131 
 SER132  LEU210  SER211  ILE212  SER213  ARG214  LYS215  ARG216  SER218  VAL219 
 MET220  ASN221  TRP222  SER223  ILE224  PRO225  VAL226  HIS232  CYS233  ILE234 
 TYR235  VAL236  TRP237  LEU238  ASP239  ALA240  LEU241  PHE242  ASN243  TYR244 
 TYR245  THR246  HIS275  VAL276  VAL277  GLY278  LYS279  ASP280  ILE281  LEU282 
 LYS283  PHE284  HIS285  ALA286  ILE287  TYR288  TRP289  PRO290  PHE292  LEU304 
 TRP309 

> <Gold.Protein.RotatedAtoms>
  -32.6697   -6.6022   -5.8141 H   0  0  0  0  0  0  0  0  0  0  0  0  # atno 4356 bound_to 100 
  -30.3144   -8.2561   -9.1412 H   0  0  0  0  0  0  0  0  0  0  0  0  # atno 4452 bound_to 380 
  -45.7130  -11.7443  -15.4404 H   0  0  0  0  0  0  0  0  0  0  0  0  # atno 4464 bound_to 112 
  -34.1322   -9.7213  -16.6761 H   0  0  0  0  0  0  0  0  0  0  0  0  # atno 4500 bound_to 391 
  -30.4297  -16.4287   -2.7717 H   0  0  0  0  0  0  0  0  0  0  0  0  # atno 4818 bound_to 65  
  -49.2431  -10.8821  -14.3371 H   0  0  0  0  0  0  0  0  0  0  0  0  # atno 4839 bound_to 441 
  -47.7842  -11.5237  -13.8816 H   0  0  0  0  0  0  0  0  0  0  0  0  # atno 4840 bound_to 441 
  -48.9487  -11.2210  -12.7416 H   0  0  0  0  0  0  0  0  0  0  0  0  # atno 4841 bound_to 441 
  -37.8966  -17.8656  -15.5822 H   0  0  0  0  0  0  0  0  0  0  0  0  # atno 4985 bound_to 758 
  -54.4395  -17.6716  -15.0143 H   0  0  0  0  0  0  0  0  0  0  0  0  # atno 5271 bound_to 1023
  -53.8977  -16.0911   -7.3632 H   0  0  0  0  0  0  0  0  0  0  0  0  # atno 5330 bound_to 1065
  -53.3295  -16.6816  -17.9983 H   0  0  0  0  0  0  0  0  0  0  0  0  # atno 6036 bound_to 1776
  -45.3531  -16.9990  -19.7161 H   0  0  0  0  0  0  0  0  0  0  0  0  # atno 6078 bound_to 1819
  -48.9149  -15.0504  -11.6814 H   0  0  0  0  0  0  0  0  0  0  0  0  # atno 6166 bound_to 1916
  -34.2900  -14.9797   -4.8590 H   0  0  0  0  0  0  0  0  0  0  0  0  # atno 6268 bound_to 1997
  -48.9290  -20.1207   -1.2208 H   0  0  0  0  0  0  0  0  0  0  0  0  # atno 6640 bound_to 2347
  -35.6055   -6.5941   -2.8472 H   0  0  0  0  0  0  0  0  0  0  0  0  # atno 8510 bound_to 202 
  -32.0294   -8.5554   -5.0593 H   0  0  0  0  0  0  0  0  0  0  0  0  # atno 8592 bound_to 72  
  -44.7283  -11.2326  -16.6306 LP  0  0  0  0  0  0  0  0  0  0  0  0  # atno 8618 bound_to 112 
  -45.9644  -10.2912  -16.1284 LP  0  0  0  0  0  0  0  0  0  0  0  0  # atno 8619 bound_to 112 
  -37.2709  -18.0766  -17.0694 LP  0  0  0  0  0  0  0  0  0  0  0  0  # atno 8637 bound_to 758 
  -38.6551  -17.2323  -16.8751 LP  0  0  0  0  0  0  0  0  0  0  0  0  # atno 8638 bound_to 758 
  -54.2820  -17.1864  -13.4690 LP  0  0  0  0  0  0  0  0  0  0  0  0  # atno 8642 bound_to 1023
  -54.7484  -16.1238  -14.6179 LP  0  0  0  0  0  0  0  0  0  0  0  0  # atno 8643 bound_to 1023
  -54.5943  -17.5449  -17.4477 LP  0  0  0  0  0  0  0  0  0  0  0  0  # atno 8662 bound_to 1776
  -54.8396  -16.2850  -18.4572 LP  0  0  0  0  0  0  0  0  0  0  0  0  # atno 8663 bound_to 1776
  -45.0460  -17.7360  -18.2981 LP  0  0  0  0  0  0  0  0  0  0  0  0  # atno 8672 bound_to 1819
  -46.4938  -17.9330  -19.0273 LP  0  0  0  0  0  0  0  0  0  0  0  0  # atno 8673 bound_to 1819
  -49.9264  -15.7402  -10.6096 LP  0  0  0  0  0  0  0  0  0  0  0  0  # atno 8684 bound_to 1916
  -50.4209  -15.4614  -12.1407 LP  0  0  0  0  0  0  0  0  0  0  0  0  # atno 8685 bound_to 1916
  -31.6008  -16.4221   -3.9016 LP  0  0  0  0  0  0  0  0  0  0  0  0  # atno 8712 bound_to 65  
  -31.2510  -15.0572   -3.0761 LP  0  0  0  0  0  0  0  0  0  0  0  0  # atno 8713 bound_to 65  
  -35.3173  -15.9245   -4.0224 LP  0  0  0  0  0  0  0  0  0  0  0  0  # atno 8724 bound_to 1997
  -35.6142  -15.5792   -5.5906 LP  0  0  0  0  0  0  0  0  0  0  0  0  # atno 8725 bound_to 1997
  -31.6008   -8.9805   -3.5482 LP  0  0  0  0  0  0  0  0  0  0  0  0  # atno 8747 bound_to 72  
  -32.8910   -9.6822   -4.2621 LP  0  0  0  0  0  0  0  0  0  0  0  0  # atno 8748 bound_to 72  
  -32.0095   -7.9510   -6.4409 LP  0  0  0  0  0  0  0  0  0  0  0  0  # atno 8749 bound_to 100 
  -33.2198   -8.0618   -5.3503 LP  0  0  0  0  0  0  0  0  0  0  0  0  # atno 8750 bound_to 100 
  -34.9622   -6.1118   -1.4325 LP  0  0  0  0  0  0  0  0  0  0  0  0  # atno 8754 bound_to 202 
  -35.3068   -7.6886   -1.6806 LP  0  0  0  0  0  0  0  0  0  0  0  0  # atno 8755 bound_to 202 
  -54.6826  -14.7028   -7.0397 LP  0  0  0  0  0  0  0  0  0  0  0  0  # atno 8775 bound_to 1065
  -54.1783  -15.0240   -8.5593 LP  0  0  0  0  0  0  0  0  0  0  0  0  # atno 8776 bound_to 1065
  -49.5308  -21.4734   -1.8961 LP  0  0  0  0  0  0  0  0  0  0  0  0  # atno 8779 bound_to 2347
  -49.2358  -20.1586   -2.8185 LP  0  0  0  0  0  0  0  0  0  0  0  0  # atno 8780 bound_to 2347
  -30.8255   -9.1763   -7.9002 LP  0  0  0  0  0  0  0  0  0  0  0  0  # atno 8787 bound_to 380 
  -31.1645   -9.6118   -9.4371 LP  0  0  0  0  0  0  0  0  0  0  0  0  # atno 8788 bound_to 380 

$$$$
