unknown|11k_best|sdf|8337|dock8
  -GOLD-   3 721 1563D 1   1.00000     0.00000

 31 33  0  0  0  0  0  0  0  0  1 V2000
  -42.6033  -17.5668  -15.3679 C   0  0  0  0  0  0  0  0  0  0  0  0
  -43.5614  -18.3953  -16.1641 C   0  0  0  0  0  0  0  0  0  0  0  0
  -43.1427  -19.4393  -16.7215 O   0  0  0  0  0  0  0  0  0  0  0  0
  -44.8943  -17.9437  -16.4098 N   0  0  0  0  0  0  0  0  0  0  0  0
  -45.3213  -16.6148  -16.1070 C   0  0  0  0  0  0  0  0  0  0  0  0
  -44.4113  -15.7221  -15.5545 C   0  0  0  0  0  0  0  0  0  0  0  0
  -44.8437  -14.6233  -14.8214 C   0  0  0  0  0  0  0  0  0  0  0  0
  -46.0836  -14.6660  -14.2325 C   0  0  0  0  0  0  0  0  0  0  0  0
  -46.3762  -14.1428  -12.9482 N   0  0  0  0  0  0  0  0  0  0  0  0
  -45.3473  -13.5143  -12.1748 C   0  0  0  0  0  0  0  0  0  0  0  0
  -44.1633  -13.8238  -12.5054 O   0  0  0  0  0  0  0  0  0  0  0  0
  -45.6976  -13.2145  -10.7806 C   0  0  0  0  0  0  0  0  0  0  0  0
  -44.9439  -12.3264  -10.0223 C   0  0  0  0  0  0  0  0  0  0  0  0
  -44.6076  -12.6421   -8.7111 C   0  0  0  0  0  0  0  0  0  0  0  0
  -45.2333  -13.6854   -8.0393 C   0  0  0  0  0  0  0  0  0  0  0  0
  -45.2544  -13.6023   -6.6308 N   0  0  0  0  0  0  0  0  0  0  0  0
  -44.1642  -12.6755   -5.6891 S   0  0  0  0  0  0  0  0  0  0  0  0
  -44.7699  -12.3752   -4.3396 O   0  0  0  0  0  0  0  0  0  0  0  0
  -43.8076  -11.3686   -6.3126 O   0  0  0  0  0  0  0  0  0  0  0  0
  -42.6996  -13.6293   -5.4904 C   0  0  0  0  0  0  0  0  0  0  0  0
  -41.4672  -13.1767   -5.9363 C   0  0  0  0  0  0  0  0  0  0  0  0
  -40.4541  -14.0823   -6.2154 C   0  0  0  0  0  0  0  0  0  0  0  0
  -40.6918  -15.4361   -6.1266 C   0  0  0  0  0  0  0  0  0  0  0  0
  -39.9302  -16.4447   -6.9262 C   0  0  0  0  0  0  0  0  0  0  0  0
  -41.7896  -15.8795   -5.4005 C   0  0  0  0  0  0  0  0  0  0  0  0
  -42.7523  -14.9513   -5.0836 C   0  0  0  0  0  0  0  0  0  0  0  0
  -46.3485  -14.2185   -8.6714 C   0  0  0  0  0  0  0  0  0  0  0  0
  -47.4464  -14.8912   -7.9168 C   0  0  0  0  0  0  0  0  0  0  0  0
  -46.4290  -14.1426  -10.0491 C   0  0  0  0  0  0  0  0  0  0  0  0
  -47.0346  -15.4907  -14.8038 C   0  0  0  0  0  0  0  0  0  0  0  0
  -46.6560  -16.3626  -15.8146 C   0  0  0  0  0  0  0  0  0  0  0  0
  1  2  1  0  0  0  0
  2  3  2  0  0  0  0
  2  4  1  0  0  0  0
  4  5  1  0  0  0  0
  5  6  2  0  0  0  0
  6  7  1  0  0  0  0
  7  8  2  0  0  0  0
  8  9  1  0  0  0  0
  9 10  1  0  0  0  0
 10 11  2  0  0  0  0
 10 12  1  0  0  0  0
 12 13  2  0  0  0  0
 13 14  1  0  0  0  0
 14 15  2  0  0  0  0
 15 16  1  0  0  0  0
 16 17  1  0  0  0  0
 17 18  2  0  0  0  0
 17 19  2  0  0  0  0
 17 20  1  0  0  0  0
 20 21  2  0  0  0  0
 21 22  1  0  0  0  0
 22 23  2  0  0  0  0
 23 24  1  0  0  0  0
 23 25  1  0  0  0  0
 25 26  2  0  0  0  0
 15 27  1  0  0  0  0
 27 28  1  0  0  0  0
 27 29  2  0  0  0  0
  8 30  1  0  0  0  0
 30 31  2  0  0  0  0
 31  5  1  0  0  0  0
 29 12  1  0  0  0  0
 26 20  1  0  0  0  0
M  END
>  <zinc_id>  (337) 
ZINC000010314990

>  <smiles>  (337) 
CC(=O)Nc1ccc(NC(=O)c2ccc(NS(=O)(=O)c3ccc(C)cc3)c(C)c2)cc1

>  <source_line>  (337) 
337

>  <source_data>  (337) 
ZINC000010314990

>  <source_name>  (337) 


>  <source_label>  (337) 
ZINC000010314990

>  <found_by>  (337) 
ZINC

> <Gold.Version>
5.8.1

> <Gold.Id.Protein>
ID|ID_protein|mol2

> <Gold.Goldscore.Fitness>
62.3652

> <Gold.Goldscore.Internal.Vdw>
-0.2746

> <Gold.Goldscore.Internal.Torsion>
-14.8992

> <Gold.Goldscore.External.Vdw>
46.9314

> <Gold.Goldscore.Internal.HBond>
0.0000

> <Gold.Goldscore.External.HBond>
3.4317

> <Gold.Goldscore.Internal.Correction>
-9.5768

> <Gold.Goldscore.Hbonds>
donor molecule, donor type, donor heavy atom, donor atom, acceptor molecule, acceptor atom, score
      P1  H   441  4840       L1     9  0.02
      P1  H  1819  6078       L1     4  0.42
      P1  H  1822  6079       L1     3  0.19
      P1  H  1916  6166       L1     9  0.06

> <Gold.Goldscore.Internal.Vdw.Weighted>
-0.2746

> <Gold.Goldscore.Internal.Torsion.Weighted>
-14.8992

> <Gold.Goldscore.External.Vdw.Weighted>
64.5307

> <Gold.Goldscore.Internal.HBond.Weighted>
0.0000

> <Gold.Goldscore.External.HBond.Weighted>
3.4317

> <Gold.Goldscore.Internal.Correction.Weighted>
-9.5768

> <Gold.Protein.RotatedTorsions>
[ 4464  112  111  109 ] final   14.18 input   60.00 | X-H torsion
[ 4839  441  440  439 ] final   73.05 input   60.00 | X-H torsion
[ 4985  758  757  756 ] final -136.16 input   60.00 | X-H torsion
[ 5271 1023 1022 1020 ] final  -99.05 input   60.00 | X-H torsion
[ 6036 1776 1775 1774 ] final  -10.51 input   60.00 | X-H torsion
[ 6078 1819 1818 1817 ] final -105.37 input   60.00 | X-H torsion
[ 6166 1916 1915 1913 ] final  -69.34 input   60.00 | X-H torsion
[ 4818   65   64   63 ] final -124.03 input   60.00 | X-H torsion
[ 6268 1997 1996 1994 ] final -120.43 input   60.00 | X-H torsion
[ 8592   72   71   70 ] final   79.78 input   60.00 | X-H torsion
[ 4356  100   99   97 ] final  -83.39 input   60.00 | X-H torsion
[ 8510  202  201  200 ] final   94.64 input   60.00 | X-H torsion
[ 5330 1065 1064 1063 ] final  139.41 input   60.00 | X-H torsion
[ 6640 2347 2346 2344 ] final -165.85 input   60.00 | X-H torsion
[ 4452  380  379  378 ] final  171.39 input   60.00 | X-H torsion
[ 4500  391  390  389 ] final  106.70 input   60.00 | X-H torsion

> <Gold.Protein.ActiveResidues>
 THR8    THR9    PRO10   ILE11   TYR12   TYR13   VAL14   ASN15   ALA16   HIS19  
 HIS22   SER25   VAL29   MET46   THR47   GLY48   THR49   ASP50   GLU51   HIS52  
 GLY53   GLN54   LYS55   VAL56   ALA57   GLU58   THR71   PHE78   ILE93   THR95  
 THR96   HIS100  GLU101  VAL104  TRP108  TYR126  VAL128  SER129  ASP130  GLU131 
 SER132  LEU210  SER211  ILE212  SER213  ARG214  LYS215  ARG216  SER218  VAL219 
 MET220  ASN221  TRP222  SER223  ILE224  PRO225  VAL226  HIS232  CYS233  ILE234 
 TYR235  VAL236  TRP237  LEU238  ASP239  ALA240  LEU241  PHE242  ASN243  TYR244 
 TYR245  THR246  HIS275  VAL276  VAL277  GLY278  LYS279  ASP280  ILE281  LEU282 
 LYS283  PHE284  HIS285  ALA286  ILE287  TYR288  TRP289  PRO290  PHE292  LEU304 
 TRP309 

> <Gold.Protein.RotatedAtoms>
  -32.7176   -6.6088   -5.7710 H   0  0  0  0  0  0  0  0  0  0  0  0  # atno 4356 bound_to 100 
  -30.2827   -8.2456   -8.5965 H   0  0  0  0  0  0  0  0  0  0  0  0  # atno 4452 bound_to 380 
  -45.0920  -11.9263  -15.8742 H   0  0  0  0  0  0  0  0  0  0  0  0  # atno 4464 bound_to 112 
  -35.3555  -10.6131  -16.7559 H   0  0  0  0  0  0  0  0  0  0  0  0  # atno 4500 bound_to 391 
  -30.8074  -16.8612   -3.2920 H   0  0  0  0  0  0  0  0  0  0  0  0  # atno 4818 bound_to 65  
  -48.5469  -11.1215  -14.5998 H   0  0  0  0  0  0  0  0  0  0  0  0  # atno 4839 bound_to 441 
  -47.9491  -11.5645  -13.1187 H   0  0  0  0  0  0  0  0  0  0  0  0  # atno 4840 bound_to 441 
  -49.4799  -10.9408  -13.2418 H   0  0  0  0  0  0  0  0  0  0  0  0  # atno 4841 bound_to 441 
  -38.7104  -17.2196  -16.6755 H   0  0  0  0  0  0  0  0  0  0  0  0  # atno 4985 bound_to 758 
  -54.5973  -16.2088  -13.8725 H   0  0  0  0  0  0  0  0  0  0  0  0  # atno 5271 bound_to 1023
  -54.7113  -14.5433   -7.2915 H   0  0  0  0  0  0  0  0  0  0  0  0  # atno 5330 bound_to 1065
  -53.9995  -16.1153  -18.5083 H   0  0  0  0  0  0  0  0  0  0  0  0  # atno 6036 bound_to 1776
  -45.1978  -17.8445  -18.2374 H   0  0  0  0  0  0  0  0  0  0  0  0  # atno 6078 bound_to 1819
  -48.9893  -15.0257  -11.8545 H   0  0  0  0  0  0  0  0  0  0  0  0  # atno 6166 bound_to 1916
  -35.2933  -15.9136   -4.0173 H   0  0  0  0  0  0  0  0  0  0  0  0  # atno 6268 bound_to 1997
  -49.0043  -19.7530   -2.3452 H   0  0  0  0  0  0  0  0  0  0  0  0  # atno 6640 bound_to 2347
  -35.4525   -6.1452   -2.6407 H   0  0  0  0  0  0  0  0  0  0  0  0  # atno 8510 bound_to 202 
  -31.6537   -9.0458   -3.5134 H   0  0  0  0  0  0  0  0  0  0  0  0  # atno 8592 bound_to 72  
  -45.0934  -10.5464  -16.7367 LP  0  0  0  0  0  0  0  0  0  0  0  0  # atno 8618 bound_to 112 
  -46.2247  -10.7942  -15.5854 LP  0  0  0  0  0  0  0  0  0  0  0  0  # atno 8619 bound_to 112 
  -37.7232  -17.9721  -15.6232 LP  0  0  0  0  0  0  0  0  0  0  0  0  # atno 8637 bound_to 758 
  -37.3832  -17.9874  -17.2203 LP  0  0  0  0  0  0  0  0  0  0  0  0  # atno 8638 bound_to 758 
  -54.6545  -16.9937  -15.2969 LP  0  0  0  0  0  0  0  0  0  0  0  0  # atno 8642 bound_to 1023
  -54.2169  -17.7896  -13.9398 LP  0  0  0  0  0  0  0  0  0  0  0  0  # atno 8643 bound_to 1023
  -53.5960  -17.3360  -17.5106 LP  0  0  0  0  0  0  0  0  0  0  0  0  # atno 8662 bound_to 1776
  -55.1631  -17.0642  -17.8807 LP  0  0  0  0  0  0  0  0  0  0  0  0  # atno 8663 bound_to 1776
  -46.5117  -17.8357  -19.1974 LP  0  0  0  0  0  0  0  0  0  0  0  0  # atno 8672 bound_to 1819
  -45.1845  -16.9819  -19.6171 LP  0  0  0  0  0  0  0  0  0  0  0  0  # atno 8673 bound_to 1819
  -49.7467  -15.6851  -10.5740 LP  0  0  0  0  0  0  0  0  0  0  0  0  # atno 8684 bound_to 1916
  -50.5256  -15.5414  -12.0020 LP  0  0  0  0  0  0  0  0  0  0  0  0  # atno 8685 bound_to 1916
  -31.7854  -15.6692   -3.8124 LP  0  0  0  0  0  0  0  0  0  0  0  0  # atno 8712 bound_to 65  
  -30.6861  -15.3745   -2.6414 LP  0  0  0  0  0  0  0  0  0  0  0  0  # atno 8713 bound_to 65  
  -35.6305  -15.5943   -5.5769 LP  0  0  0  0  0  0  0  0  0  0  0  0  # atno 8724 bound_to 1997
  -34.2908  -14.9689   -4.8837 LP  0  0  0  0  0  0  0  0  0  0  0  0  # atno 8725 bound_to 1997
  -32.9116   -9.6554   -4.3465 LP  0  0  0  0  0  0  0  0  0  0  0  0  # atno 8747 bound_to 72  
  -31.9587   -8.5134   -5.0206 LP  0  0  0  0  0  0  0  0  0  0  0  0  # atno 8748 bound_to 72  
  -31.9890   -7.8915   -6.4579 LP  0  0  0  0  0  0  0  0  0  0  0  0  # atno 8749 bound_to 100 
  -33.1921   -8.1146   -5.3766 LP  0  0  0  0  0  0  0  0  0  0  0  0  # atno 8750 bound_to 100 
  -34.9198   -6.5526   -1.1581 LP  0  0  0  0  0  0  0  0  0  0  0  0  # atno 8754 bound_to 202 
  -35.5033   -7.6999   -2.1629 LP  0  0  0  0  0  0  0  0  0  0  0  0  # atno 8755 bound_to 202 
  -54.0386  -15.2898   -8.5716 LP  0  0  0  0  0  0  0  0  0  0  0  0  # atno 8775 bound_to 1065
  -54.0029  -15.9958   -7.0995 LP  0  0  0  0  0  0  0  0  0  0  0  0  # atno 8776 bound_to 1065
  -49.1176  -20.7359   -1.0533 LP  0  0  0  0  0  0  0  0  0  0  0  0  # atno 8779 bound_to 2347
  -49.5732  -21.2664   -2.5289 LP  0  0  0  0  0  0  0  0  0  0  0  0  # atno 8780 bound_to 2347
  -31.0897   -9.5870   -8.1522 LP  0  0  0  0  0  0  0  0  0  0  0  0  # atno 8787 bound_to 380 
  -30.9321   -9.2117   -9.7336 LP  0  0  0  0  0  0  0  0  0  0  0  0  # atno 8788 bound_to 380 

$$$$
