unknown|11k_best|sdf|8270|dock5
  -GOLD-   3 721 0323D 1   1.00000     0.00000

 30 33  0  0  0  0  0  0  0  0  1 V2000
  -48.0539  -14.5895   -7.1996 C   0  0  0  0  0  0  0  0  0  0  0  0
  -46.7768  -13.9764   -7.6529 C   0  0  0  0  0  0  0  0  0  0  0  0
  -45.8592  -13.4279   -6.7694 C   0  0  0  0  0  0  0  0  0  0  0  0
  -44.7434  -12.7663   -7.2669 C   0  0  0  0  0  0  0  0  0  0  0  0
  -44.5916  -12.5774   -8.6352 C   0  0  0  0  0  0  0  0  0  0  0  0
  -45.5909  -13.0259   -9.4905 C   0  0  0  0  0  0  0  0  0  0  0  0
  -45.3875  -13.0127  -10.9425 C   0  0  0  0  0  0  0  0  0  0  0  0
  -44.3385  -13.5685  -11.5952 N   0  0  0  0  0  0  0  0  0  0  0  0
  -44.6505  -13.7452  -12.8557 O   0  0  0  0  0  0  0  0  0  0  0  0
  -45.9511  -13.5599  -12.9915 C   0  0  0  0  0  0  0  0  0  0  0  0
  -46.8405  -14.1841  -14.0200 C   0  0  0  0  0  0  0  0  0  0  0  0
  -48.0882  -13.3340  -14.2335 C   0  0  0  0  0  0  0  0  0  0  0  0
  -48.2682  -13.1423  -15.7033 C   0  0  0  0  0  0  0  0  0  0  0  0
  -48.2390  -11.9995  -16.2278 O   0  0  0  0  0  0  0  0  0  0  0  0
  -48.8062  -14.2470  -16.4179 N   0  0  0  0  0  0  0  0  0  0  0  0
  -49.1468  -15.4959  -15.7451 C   0  0  0  0  0  0  0  0  0  0  0  0
  -48.0172  -16.4402  -15.9884 C   0  0  0  0  0  0  0  0  0  0  0  0
  -48.2575  -17.7402  -16.4077 C   0  0  0  0  0  0  0  0  0  0  0  0
  -47.3140  -18.4544  -17.1350 C   0  0  0  0  0  0  0  0  0  0  0  0
  -45.9866  -18.0777  -16.9814 C   0  0  0  0  0  0  0  0  0  0  0  0
  -45.6938  -16.9160  -16.2937 C   0  0  0  0  0  0  0  0  0  0  0  0
  -46.6968  -16.0114  -15.9741 C   0  0  0  0  0  0  0  0  0  0  0  0
  -50.3720  -16.0346  -16.4035 C   0  0  0  0  0  0  0  0  0  0  0  0
  -50.2001  -16.6729  -17.6206 C   0  0  0  0  0  0  0  0  0  0  0  0
  -51.2268  -17.4655  -18.0947 C   0  0  0  0  0  0  0  0  0  0  0  0
  -52.3665  -17.7132  -17.3478 C   0  0  0  0  0  0  0  0  0  0  0  0
  -52.5416  -17.0395  -16.1517 C   0  0  0  0  0  0  0  0  0  0  0  0
  -51.4374  -16.4359  -15.6115 C   0  0  0  0  0  0  0  0  0  0  0  0
  -46.3022  -12.8068  -11.9215 N   0  0  0  0  0  0  0  0  0  0  0  0
  -46.3913  -14.0388   -8.9791 C   0  0  0  0  0  0  0  0  0  0  0  0
  1  2  1  0  0  0  0
  2  3  2  0  0  0  0
  3  4  1  0  0  0  0
  4  5  2  0  0  0  0
  5  6  1  0  0  0  0
  6  7  1  0  0  0  0
  7  8  2  0  0  0  0
  8  9  1  0  0  0  0
  9 10  1  0  0  0  0
 10 11  1  0  0  0  0
 11 12  1  0  0  0  0
 12 13  1  0  0  0  0
 13 14  2  0  0  0  0
 13 15  1  0  0  0  0
 15 16  1  0  0  0  0
 16 17  1  0  0  0  0
 17 18  2  0  0  0  0
 18 19  1  0  0  0  0
 19 20  2  0  0  0  0
 20 21  1  0  0  0  0
 21 22  2  0  0  0  0
 16 23  1  0  0  0  0
 23 24  2  0  0  0  0
 24 25  1  0  0  0  0
 25 26  2  0  0  0  0
 26 27  1  0  0  0  0
 27 28  2  0  0  0  0
 10 29  2  0  0  0  0
  6 30  2  0  0  0  0
 30  2  1  0  0  0  0
 29  7  1  0  0  0  0
 22 17  1  0  0  0  0
 28 23  1  0  0  0  0
M  END
>  <zinc_id>  (270) 
ZINC000225814803

>  <smiles>  (270) 
Cc1cccc(-c2noc(CCC(=O)NC(c3ccccc3)c3ccccc3)n2)c1

>  <source_line>  (270) 
270

>  <source_data>  (270) 
ZINC000225814803

>  <source_name>  (270) 


>  <source_label>  (270) 
ZINC000225814803

>  <found_by>  (270) 
ZINC

> <Gold.Version>
5.8.1

> <Gold.Id.Protein>
ID|ID_protein|mol2

> <Gold.Goldscore.Fitness>
61.5051

> <Gold.Goldscore.Internal.Vdw>
-1.1063

> <Gold.Goldscore.Internal.Torsion>
-5.7069

> <Gold.Goldscore.External.Vdw>
42.3702

> <Gold.Goldscore.Internal.HBond>
0.0000

> <Gold.Goldscore.External.HBond>
14.1020

> <Gold.Goldscore.Internal.Correction>
4.0428

> <Gold.Goldscore.Hbonds>
donor molecule, donor type, donor heavy atom, donor atom, acceptor molecule, acceptor atom, score
      P1  H   426  4822       L1    15  0.62
      P1  H   435  4829       L1    14  0.99
      P1  H   441  4839       L1    29  0.65
      P1  H   441  4841       L1    14  0.75

> <Gold.Goldscore.Internal.Vdw.Weighted>
-1.1063

> <Gold.Goldscore.Internal.Torsion.Weighted>
-5.7069

> <Gold.Goldscore.External.Vdw.Weighted>
58.2590

> <Gold.Goldscore.Internal.HBond.Weighted>
0.0000

> <Gold.Goldscore.External.HBond.Weighted>
14.1020

> <Gold.Goldscore.Internal.Correction.Weighted>
4.0428

> <Gold.Protein.RotatedTorsions>
[ 4464  112  111  109 ] final   15.58 input   60.00 | X-H torsion
[ 4839  441  440  439 ] final -169.31 input   60.00 | X-H torsion
[ 4985  758  757  756 ] final    8.66 input   60.00 | X-H torsion
[ 5271 1023 1022 1020 ] final  -33.74 input   60.00 | X-H torsion
[ 6036 1776 1775 1774 ] final   -8.64 input   60.00 | X-H torsion
[ 6078 1819 1818 1817 ] final   37.22 input   60.00 | X-H torsion
[ 6166 1916 1915 1913 ] final  -64.87 input   60.00 | X-H torsion
[ 4818   65   64   63 ] final   18.20 input   60.00 | X-H torsion
[ 6268 1997 1996 1994 ] final -139.50 input   60.00 | X-H torsion
[ 8592   72   71   70 ] final    7.25 input   60.00 | X-H torsion
[ 4356  100   99   97 ] final  138.14 input   60.00 | X-H torsion
[ 8510  202  201  200 ] final  -13.90 input   60.00 | X-H torsion
[ 5330 1065 1064 1063 ] final  175.49 input   60.00 | X-H torsion
[ 6640 2347 2346 2344 ] final   59.64 input   60.00 | X-H torsion
[ 4452  380  379  378 ] final   56.45 input   60.00 | X-H torsion
[ 4500  391  390  389 ] final  -11.19 input   60.00 | X-H torsion

> <Gold.Protein.ActiveResidues>
 THR8    THR9    PRO10   ILE11   TYR12   TYR13   VAL14   ASN15   ALA16   HIS19  
 HIS22   SER25   VAL29   MET46   THR47   GLY48   THR49   ASP50   GLU51   HIS52  
 GLY53   GLN54   LYS55   VAL56   ALA57   GLU58   THR71   PHE78   ILE93   THR95  
 THR96   HIS100  GLU101  VAL104  TRP108  TYR126  VAL128  SER129  ASP130  GLU131 
 SER132  LEU210  SER211  ILE212  SER213  ARG214  LYS215  ARG216  SER218  VAL219 
 MET220  ASN221  TRP222  SER223  ILE224  PRO225  VAL226  HIS232  CYS233  ILE234 
 TYR235  VAL236  TRP237  LEU238  ASP239  ALA240  LEU241  PHE242  ASN243  TYR244 
 TYR245  THR246  HIS275  VAL276  VAL277  GLY278  LYS279  ASP280  ILE281  LEU282 
 LYS283  PHE284  HIS285  ALA286  ILE287  TYR288  TRP289  PRO290  PHE292  LEU304 
 TRP309 

> <Gold.Protein.RotatedAtoms>
  -32.1144   -8.1455   -6.3541 H   0  0  0  0  0  0  0  0  0  0  0  0  # atno 4356 bound_to 100 
  -31.0513   -9.5328   -8.1020 H   0  0  0  0  0  0  0  0  0  0  0  0  # atno 4452 bound_to 380 
  -45.1079  -11.9295  -15.8581 H   0  0  0  0  0  0  0  0  0  0  0  0  # atno 4464 bound_to 112 
  -34.1786  -11.2413  -15.8652 H   0  0  0  0  0  0  0  0  0  0  0  0  # atno 4500 bound_to 391 
  -30.9297  -15.1620   -2.8053 H   0  0  0  0  0  0  0  0  0  0  0  0  # atno 4818 bound_to 65  
  -47.9276  -11.5686  -13.1514 H   0  0  0  0  0  0  0  0  0  0  0  0  # atno 4839 bound_to 441 
  -49.4649  -10.9515  -13.2069 H   0  0  0  0  0  0  0  0  0  0  0  0  # atno 4840 bound_to 441 
  -48.5834  -11.1068  -14.6019 H   0  0  0  0  0  0  0  0  0  0  0  0  # atno 4841 bound_to 441 
  -37.1979  -18.1411  -16.8962 H   0  0  0  0  0  0  0  0  0  0  0  0  # atno 4985 bound_to 758 
  -54.3076  -17.0817  -13.4543 H   0  0  0  0  0  0  0  0  0  0  0  0  # atno 5271 bound_to 1023
  -54.6114  -14.9221   -6.8640 H   0  0  0  0  0  0  0  0  0  0  0  0  # atno 5330 bound_to 1065
  -54.0291  -16.1106  -18.5150 H   0  0  0  0  0  0  0  0  0  0  0  0  # atno 6036 bound_to 1776
  -45.5107  -17.0293  -19.7811 H   0  0  0  0  0  0  0  0  0  0  0  0  # atno 6078 bound_to 1819
  -49.0265  -15.0204  -11.9171 H   0  0  0  0  0  0  0  0  0  0  0  0  # atno 6166 bound_to 1916
  -35.5320  -16.0078   -4.1915 H   0  0  0  0  0  0  0  0  0  0  0  0  # atno 6268 bound_to 1997
  -49.2015  -20.9491   -1.1155 H   0  0  0  0  0  0  0  0  0  0  0  0  # atno 6640 bound_to 2347
  -34.9222   -6.3818   -1.2361 H   0  0  0  0  0  0  0  0  0  0  0  0  # atno 8510 bound_to 202 
  -32.5378   -9.6891   -3.6898 H   0  0  0  0  0  0  0  0  0  0  0  0  # atno 8592 bound_to 72  
  -45.0775  -10.5627  -16.7406 LP  0  0  0  0  0  0  0  0  0  0  0  0  # atno 8618 bound_to 112 
  -46.2245  -10.7747  -15.5978 LP  0  0  0  0  0  0  0  0  0  0  0  0  # atno 8619 bound_to 112 
  -38.5631  -17.2686  -17.0481 LP  0  0  0  0  0  0  0  0  0  0  0  0  # atno 8637 bound_to 758 
  -38.0665  -17.7629  -15.5731 LP  0  0  0  0  0  0  0  0  0  0  0  0  # atno 8638 bound_to 758 
  -54.7569  -16.1622  -14.7195 LP  0  0  0  0  0  0  0  0  0  0  0  0  # atno 8642 bound_to 1023
  -54.4062  -17.7420  -14.9384 LP  0  0  0  0  0  0  0  0  0  0  0  0  # atno 8643 bound_to 1023
  -53.5743  -17.3176  -17.5228 LP  0  0  0  0  0  0  0  0  0  0  0  0  # atno 8662 bound_to 1776
  -55.1550  -17.0873  -17.8619 LP  0  0  0  0  0  0  0  0  0  0  0  0  # atno 8663 bound_to 1776
  -44.9346  -17.6330  -18.3840 LP  0  0  0  0  0  0  0  0  0  0  0  0  # atno 8672 bound_to 1819
  -46.4465  -18.0055  -18.8759 LP  0  0  0  0  0  0  0  0  0  0  0  0  # atno 8673 bound_to 1819
  -49.6774  -15.6608  -10.5702 LP  0  0  0  0  0  0  0  0  0  0  0  0  # atno 8684 bound_to 1916
  -50.5576  -15.5709  -11.9427 LP  0  0  0  0  0  0  0  0  0  0  0  0  # atno 8685 bound_to 1916
  -30.5880  -16.7369   -3.0316 LP  0  0  0  0  0  0  0  0  0  0  0  0  # atno 8712 bound_to 65  
  -31.7603  -16.0180   -3.9123 LP  0  0  0  0  0  0  0  0  0  0  0  0  # atno 8713 bound_to 65  
  -35.4102  -15.4104   -5.7002 LP  0  0  0  0  0  0  0  0  0  0  0  0  # atno 8724 bound_to 1997
  -34.2706  -15.0581   -4.5850 LP  0  0  0  0  0  0  0  0  0  0  0  0  # atno 8725 bound_to 1997
  -32.5645   -8.9542   -5.1415 LP  0  0  0  0  0  0  0  0  0  0  0  0  # atno 8747 bound_to 72  
  -31.4153   -8.5668   -4.0480 LP  0  0  0  0  0  0  0  0  0  0  0  0  # atno 8748 bound_to 72  
  -33.2964   -7.8489   -5.2758 LP  0  0  0  0  0  0  0  0  0  0  0  0  # atno 8749 bound_to 100 
  -32.4922   -6.6097   -5.9715 LP  0  0  0  0  0  0  0  0  0  0  0  0  # atno 8750 bound_to 100 
  -35.4376   -7.7292   -1.9889 LP  0  0  0  0  0  0  0  0  0  0  0  0  # atno 8754 bound_to 202 
  -35.5196   -6.2850   -2.7466 LP  0  0  0  0  0  0  0  0  0  0  0  0  # atno 8755 bound_to 202 
  -54.3207  -14.7908   -8.4597 LP  0  0  0  0  0  0  0  0  0  0  0  0  # atno 8775 bound_to 1065
  -53.8215  -16.1132   -7.6420 LP  0  0  0  0  0  0  0  0  0  0  0  0  # atno 8776 bound_to 1065
  -49.5460  -21.1015   -2.6986 LP  0  0  0  0  0  0  0  0  0  0  0  0  # atno 8779 bound_to 2347
  -48.9462  -19.6963   -2.1221 LP  0  0  0  0  0  0  0  0  0  0  0  0  # atno 8780 bound_to 2347
  -30.9727   -9.2795   -9.7076 LP  0  0  0  0  0  0  0  0  0  0  0  0  # atno 8787 bound_to 380 
  -30.2752   -8.2229   -8.6762 LP  0  0  0  0  0  0  0  0  0  0  0  0  # atno 8788 bound_to 380 

$$$$
