unknown|11k_best|sdf|8242|dock10
  -GOLD-   3 62123583D 1   1.00000     0.00000

 28 31  0  0  0  0  0  0  0  0  1 V2000
  -51.9972  -16.1506  -16.1147 C   0  0  0  0  0  0  0  0  0  0  0  0
  -51.3181  -17.1899  -16.8121 O   0  0  0  0  0  0  0  0  0  0  0  0
  -49.9335  -17.2309  -16.6525 C   0  0  0  0  0  0  0  0  0  0  0  0
  -49.1438  -18.2053  -17.2351 C   0  0  0  0  0  0  0  0  0  0  0  0
  -47.7659  -18.1134  -17.1716 C   0  0  0  0  0  0  0  0  0  0  0  0
  -47.2374  -17.1368  -16.3416 C   0  0  0  0  0  0  0  0  0  0  0  0
  -45.8420  -17.1279  -15.9190 C   0  0  0  0  0  0  0  0  0  0  0  0
  -44.9988  -17.8353  -16.5184 O   0  0  0  0  0  0  0  0  0  0  0  0
  -45.5707  -16.5334  -14.5752 C   0  0  0  0  0  0  0  0  0  0  0  0
  -44.3963  -15.1730  -14.6852 S   0  0  0  0  0  0  0  0  0  0  0  0
  -44.6510  -14.0540  -13.3275 C   0  0  0  0  0  0  0  0  0  0  0  0
  -43.7734  -13.8365  -12.3241 N   0  0  0  0  0  0  0  0  0  0  0  0
  -44.1739  -12.7184  -11.7498 N   0  0  0  0  0  0  0  0  0  0  0  0
  -45.4835  -12.4932  -12.0182 C   0  0  0  0  0  0  0  0  0  0  0  0
  -46.5176  -12.0260  -11.0851 C   0  0  0  0  0  0  0  0  0  0  0  0
  -46.5010  -10.8856  -10.2918 C   0  0  0  0  0  0  0  0  0  0  0  0
  -47.8095  -10.4355  -10.1612 C   0  0  0  0  0  0  0  0  0  0  0  0
  -48.3849   -9.1939   -9.9183 C   0  0  0  0  0  0  0  0  0  0  0  0
  -49.6360   -8.8998  -10.4446 C   0  0  0  0  0  0  0  0  0  0  0  0
  -50.3211   -7.3244  -10.1221 Cl  0  0  0  0  0  0  0  0  0  0  0  0
  -50.3997   -9.9805  -10.8636 C   0  0  0  0  0  0  0  0  0  0  0  0
  -49.9353  -11.2832  -10.7301 C   0  0  0  0  0  0  0  0  0  0  0  0
  -48.5678  -11.5053  -10.6209 C   0  0  0  0  0  0  0  0  0  0  0  0
  -47.7608  -12.4131  -11.1149 O   0  0  0  0  0  0  0  0  0  0  0  0
  -45.7253  -13.2553  -13.1129 N   0  0  0  0  0  0  0  0  0  0  0  0
  -46.9371  -13.1808  -13.9157 C   0  0  0  0  0  0  0  0  0  0  0  0
  -47.9644  -15.9643  -16.2569 C   0  0  0  0  0  0  0  0  0  0  0  0
  -49.3357  -16.0462  -16.2543 C   0  0  0  0  0  0  0  0  0  0  0  0
  1  2  1  0  0  0  0
  2  3  1  0  0  0  0
  3  4  2  0  0  0  0
  4  5  1  0  0  0  0
  5  6  2  0  0  0  0
  6  7  1  0  0  0  0
  7  8  2  0  0  0  0
  7  9  1  0  0  0  0
  9 10  1  0  0  0  0
 10 11  1  0  0  0  0
 11 12  2  0  0  0  0
 12 13  1  0  0  0  0
 13 14  2  0  0  0  0
 14 15  1  0  0  0  0
 15 16  2  0  0  0  0
 16 17  1  0  0  0  0
 17 18  2  0  0  0  0
 18 19  1  0  0  0  0
 19 20  1  0  0  0  0
 19 21  2  0  0  0  0
 21 22  1  0  0  0  0
 22 23  2  0  0  0  0
 23 24  1  0  0  0  0
 14 25  1  0  0  0  0
 25 26  1  0  0  0  0
  6 27  1  0  0  0  0
 27 28  2  0  0  0  0
 28  3  1  0  0  0  0
 25 11  1  0  0  0  0
 24 15  1  0  0  0  0
 23 17  1  0  0  0  0
M  END
>  <zinc_id>  (242) 
ZINC000002868264

>  <smiles>  (242) 
COc1ccc(C(=O)CSc2nnc(-c3cc4cc(Cl)ccc4o3)n2C)cc1

>  <source_line>  (242) 
242

>  <source_data>  (242) 
ZINC000002868264

>  <source_name>  (242) 


>  <source_label>  (242) 
ZINC000002868264

>  <found_by>  (242) 
ZINC

> <Gold.Version>
5.8.1

> <Gold.Id.Protein>
ID|ID_protein|mol2

> <Gold.Goldscore.Fitness>
65.5259

> <Gold.Goldscore.Internal.Vdw>
1.3239

> <Gold.Goldscore.Internal.Torsion>
-6.3054

> <Gold.Goldscore.External.Vdw>
45.8626

> <Gold.Goldscore.Internal.HBond>
0.0000

> <Gold.Goldscore.External.HBond>
8.5113

> <Gold.Goldscore.Internal.Correction>
1.0650

> <Gold.Goldscore.Hbonds>
donor molecule, donor type, donor heavy atom, donor atom, acceptor molecule, acceptor atom, score
      P1  H   441  4839       L1    24  1.00
      P1  H  1776  6036       L1     2  0.54
      P1  H  1819  6078       L1     8  0.68
      P1  H  1916  6166       L1    24  0.04

> <Gold.Goldscore.Internal.Vdw.Weighted>
1.3239

> <Gold.Goldscore.Internal.Torsion.Weighted>
-6.3054

> <Gold.Goldscore.External.Vdw.Weighted>
63.0611

> <Gold.Goldscore.Internal.HBond.Weighted>
0.0000

> <Gold.Goldscore.External.HBond.Weighted>
8.5113

> <Gold.Goldscore.Internal.Correction.Weighted>
1.0650

> <Gold.Protein.RotatedTorsions>
[ 4464  112  111  109 ] final   16.56 input   60.00 | X-H torsion
[ 4839  441  440  439 ] final -145.54 input   60.00 | X-H torsion
[ 4985  758  757  756 ] final  120.86 input   60.00 | X-H torsion
[ 5271 1023 1022 1020 ] final   46.28 input   60.00 | X-H torsion
[ 6036 1776 1775 1774 ] final -107.66 input   60.00 | X-H torsion
[ 6078 1819 1818 1817 ] final -102.13 input   60.00 | X-H torsion
[ 6166 1916 1915 1913 ] final  -79.40 input   60.00 | X-H torsion
[ 4818   65   64   63 ] final   44.29 input   60.00 | X-H torsion
[ 6268 1997 1996 1994 ] final -153.83 input   60.00 | X-H torsion
[ 8592   72   71   70 ] final  -67.41 input   60.00 | X-H torsion
[ 4356  100   99   97 ] final  118.45 input   60.00 | X-H torsion
[ 8510  202  201  200 ] final   28.66 input   60.00 | X-H torsion
[ 5330 1065 1064 1063 ] final  106.07 input   60.00 | X-H torsion
[ 6640 2347 2346 2344 ] final   84.66 input   60.00 | X-H torsion
[ 4452  380  379  378 ] final -164.34 input   60.00 | X-H torsion
[ 4500  391  390  389 ] final  136.69 input   60.00 | X-H torsion

> <Gold.Protein.ActiveResidues>
 THR8    THR9    PRO10   ILE11   TYR12   TYR13   VAL14   ASN15   ALA16   HIS19  
 HIS22   SER25   VAL29   MET46   THR47   GLY48   THR49   ASP50   GLU51   HIS52  
 GLY53   GLN54   LYS55   VAL56   ALA57   GLU58   THR71   PHE78   ILE93   THR95  
 THR96   HIS100  GLU101  VAL104  TRP108  TYR126  VAL128  SER129  ASP130  GLU131 
 SER132  LEU210  SER211  ILE212  SER213  ARG214  LYS215  ARG216  SER218  VAL219 
 MET220  ASN221  TRP222  SER223  ILE224  PRO225  VAL226  HIS232  CYS233  ILE234 
 TYR235  VAL236  TRP237  LEU238  ASP239  ALA240  LEU241  PHE242  ASN243  TYR244 
 TYR245  THR246  HIS275  VAL276  VAL277  GLY278  LYS279  ASP280  ILE281  LEU282 
 LYS283  PHE284  HIS285  ALA286  ILE287  TYR288  TRP289  PRO290  PHE292  LEU304 
 TRP309 

> <Gold.Protein.RotatedAtoms>
  -32.3001   -8.3493   -6.1914 H   0  0  0  0  0  0  0  0  0  0  0  0  # atno 4356 bound_to 100 
  -30.2883   -8.2250   -8.9896 H   0  0  0  0  0  0  0  0  0  0  0  0  # atno 4452 bound_to 380 
  -45.1192  -11.9314  -15.8469 H   0  0  0  0  0  0  0  0  0  0  0  0  # atno 4464 bound_to 112 
  -35.1907  -10.1856  -16.9135 H   0  0  0  0  0  0  0  0  0  0  0  0  # atno 4500 bound_to 391 
  -31.2418  -15.0631   -3.0726 H   0  0  0  0  0  0  0  0  0  0  0  0  # atno 4818 bound_to 65  
  -48.1947  -11.5019  -12.8694 H   0  0  0  0  0  0  0  0  0  0  0  0  # atno 4839 bound_to 441 
  -49.5491  -10.8658  -13.5823 H   0  0  0  0  0  0  0  0  0  0  0  0  # atno 4840 bound_to 441 
  -48.2320  -11.2591  -14.5085 H   0  0  0  0  0  0  0  0  0  0  0  0  # atno 4841 bound_to 441 
  -37.9568  -17.8286  -15.5764 H   0  0  0  0  0  0  0  0  0  0  0  0  # atno 4985 bound_to 758 
  -54.2614  -17.9028  -14.3334 H   0  0  0  0  0  0  0  0  0  0  0  0  # atno 5271 bound_to 1023
  -54.6472  -14.4413   -7.8150 H   0  0  0  0  0  0  0  0  0  0  0  0  # atno 5330 bound_to 1065
  -53.3920  -17.0822  -17.6914 H   0  0  0  0  0  0  0  0  0  0  0  0  # atno 6036 bound_to 1776
  -45.1555  -17.8164  -18.2522 H   0  0  0  0  0  0  0  0  0  0  0  0  # atno 6078 bound_to 1819
  -48.9231  -15.0461  -11.7057 H   0  0  0  0  0  0  0  0  0  0  0  0  # atno 6166 bound_to 1916
  -35.6794  -16.0418   -4.3695 H   0  0  0  0  0  0  0  0  0  0  0  0  # atno 6268 bound_to 1997
  -49.0586  -20.5740   -1.0565 H   0  0  0  0  0  0  0  0  0  0  0  0  # atno 6640 bound_to 2347
  -35.0511   -5.9314   -1.7284 H   0  0  0  0  0  0  0  0  0  0  0  0  # atno 8510 bound_to 202 
  -32.9045   -9.4499   -4.7375 H   0  0  0  0  0  0  0  0  0  0  0  0  # atno 8592 bound_to 72  
  -45.0665  -10.5742  -16.7431 LP  0  0  0  0  0  0  0  0  0  0  0  0  # atno 8618 bound_to 112 
  -46.2241  -10.7612  -15.6066 LP  0  0  0  0  0  0  0  0  0  0  0  0  # atno 8619 bound_to 112 
  -37.2397  -18.1034  -17.0110 LP  0  0  0  0  0  0  0  0  0  0  0  0  # atno 8637 bound_to 758 
  -38.6257  -17.2428  -16.9393 LP  0  0  0  0  0  0  0  0  0  0  0  0  # atno 8638 bound_to 758 
  -54.4775  -16.4755  -13.5822 LP  0  0  0  0  0  0  0  0  0  0  0  0  # atno 8642 bound_to 1023
  -54.7322  -16.6019  -15.1903 LP  0  0  0  0  0  0  0  0  0  0  0  0  # atno 8643 bound_to 1023
  -55.0014  -17.3215  -17.6633 LP  0  0  0  0  0  0  0  0  0  0  0  0  # atno 8662 bound_to 1776
  -54.3694  -16.1050  -18.5506 LP  0  0  0  0  0  0  0  0  0  0  0  0  # atno 8663 bound_to 1776
  -46.5106  -17.8634  -19.1519 LP  0  0  0  0  0  0  0  0  0  0  0  0  # atno 8672 bound_to 1819
  -45.2282  -16.9825  -19.6477 LP  0  0  0  0  0  0  0  0  0  0  0  0  # atno 8673 bound_to 1819
  -49.9021  -15.7334  -10.6026 LP  0  0  0  0  0  0  0  0  0  0  0  0  # atno 8684 bound_to 1916
  -50.4369  -15.4725  -12.1233 LP  0  0  0  0  0  0  0  0  0  0  0  0  # atno 8685 bound_to 1916
  -30.4286  -16.4402   -2.7714 LP  0  0  0  0  0  0  0  0  0  0  0  0  # atno 8712 bound_to 65  
  -31.6054  -16.4143   -3.9033 LP  0  0  0  0  0  0  0  0  0  0  0  0  # atno 8713 bound_to 65  
  -35.2188  -15.2769   -5.7299 LP  0  0  0  0  0  0  0  0  0  0  0  0  # atno 8724 bound_to 1997
  -34.3136  -15.1573   -4.3761 LP  0  0  0  0  0  0  0  0  0  0  0  0  # atno 8725 bound_to 1997
  -31.6499   -8.4137   -4.7184 LP  0  0  0  0  0  0  0  0  0  0  0  0  # atno 8747 bound_to 72  
  -31.9606   -9.3483   -3.4159 LP  0  0  0  0  0  0  0  0  0  0  0  0  # atno 8748 bound_to 72  
  -33.3321   -7.5310   -5.2356 LP  0  0  0  0  0  0  0  0  0  0  0  0  # atno 8749 bound_to 100 
  -32.2694   -6.7224   -6.1755 LP  0  0  0  0  0  0  0  0  0  0  0  0  # atno 8750 bound_to 100 
  -35.1660   -7.5203   -1.3965 LP  0  0  0  0  0  0  0  0  0  0  0  0  # atno 8754 bound_to 202 
  -35.6613   -6.9475   -2.8433 LP  0  0  0  0  0  0  0  0  0  0  0  0  # atno 8755 bound_to 202 
  -53.8485  -15.7500   -8.3604 LP  0  0  0  0  0  0  0  0  0  0  0  0  # atno 8775 bound_to 1065
  -54.2577  -15.6382   -6.7835 LP  0  0  0  0  0  0  0  0  0  0  0  0  # atno 8776 bound_to 1065
  -49.5793  -21.3592   -2.3833 LP  0  0  0  0  0  0  0  0  0  0  0  0  # atno 8779 bound_to 2347
  -49.0567  -19.8163   -2.4967 LP  0  0  0  0  0  0  0  0  0  0  0  0  # atno 8780 bound_to 2347
  -30.9068   -9.3054   -7.9416 LP  0  0  0  0  0  0  0  0  0  0  0  0  # atno 8787 bound_to 380 
  -31.1095   -9.5140   -9.5484 LP  0  0  0  0  0  0  0  0  0  0  0  0  # atno 8788 bound_to 380 

$$$$
