unknown|11k_best|sdf|8315|dock7
  -GOLD-   3 721 1303D 1   1.00000     0.00000

 31 33  0  0  0  0  0  0  0  0  1 V2000
  -41.1669  -16.5003  -13.8745 C   0  0  0  0  0  0  0  0  0  0  0  0
  -42.0312  -16.8857  -14.5543 O   0  0  0  0  0  0  0  0  0  0  0  0
  -43.1992  -16.2629  -14.9372 C   0  0  0  0  0  0  0  0  0  0  0  0
  -44.2072  -17.0571  -15.4698 C   0  0  0  0  0  0  0  0  0  0  0  0
  -45.4887  -16.5442  -15.6262 C   0  0  0  0  0  0  0  0  0  0  0  0
  -45.8074  -15.2882  -15.1367 C   0  0  0  0  0  0  0  0  0  0  0  0
  -47.1974  -14.8357  -15.0127 C   0  0  0  0  0  0  0  0  0  0  0  0
  -47.6557  -14.4949  -13.6293 C   0  0  0  0  0  0  0  0  0  0  0  0
  -48.0414  -15.4333  -15.7482 O   0  0  0  0  0  0  0  0  0  0  0  0
  -44.8195  -14.6178  -14.4657 C   0  0  0  0  0  0  0  0  0  0  0  0
  -45.1569  -13.4591  -13.7914 O   0  0  0  0  0  0  0  0  0  0  0  0
  -44.7943  -13.3314  -12.4611 C   0  0  0  0  0  0  0  0  0  0  0  0
  -44.0209  -14.1144  -11.8643 O   0  0  0  0  0  0  0  0  0  0  0  0
  -45.4313  -12.2467  -11.7054 C   0  0  0  0  0  0  0  0  0  0  0  0
  -44.7100  -11.1604  -11.2380 C   0  0  0  0  0  0  0  0  0  0  0  0
  -45.4074  -10.0510  -10.7939 C   0  0  0  0  0  0  0  0  0  0  0  0
  -46.7178  -10.2364  -10.4034 C   0  0  0  0  0  0  0  0  0  0  0  0
  -47.4348  -11.2965  -10.9130 C   0  0  0  0  0  0  0  0  0  0  0  0
  -48.9654  -11.6518  -10.1156 S   0  0  0  0  0  0  0  0  0  0  0  0
  -49.9051  -12.0322  -11.2248 O   0  0  0  0  0  0  0  0  0  0  0  0
  -48.8000  -12.8056   -9.1549 O   0  0  0  0  0  0  0  0  0  0  0  0
  -49.4116  -10.2718   -9.2562 N   0  0  0  0  0  0  0  0  0  0  0  0
  -49.6265   -9.0903  -10.0120 C   0  0  0  0  0  0  0  0  0  0  0  0
  -50.7682   -9.4522  -11.1561 C   0  0  2  0  0  0  0  0  0  0  0  0
  -51.6295   -8.0768  -10.8195 C   0  0  0  0  0  0  0  0  0  0  0  0
  -51.7050  -10.3624  -10.1375 C   0  0  0  0  0  0  0  0  0  0  0  0
  -51.5696   -9.4673   -8.7545 C   0  0  1  0  0  0  0  0  0  0  0  0
  -52.7337  -10.3670   -8.0016 C   0  0  0  0  0  0  0  0  0  0  0  0
  -50.3606  -10.4544   -8.1926 C   0  0  0  0  0  0  0  0  0  0  0  0
  -46.8148  -12.1542  -11.7722 C   0  0  0  0  0  0  0  0  0  0  0  0
  -43.4872  -14.9800  -14.4883 C   0  0  0  0  0  0  0  0  0  0  0  0
  1  2  1  0  0  0  0
  2  3  1  0  0  0  0
  3  4  2  0  0  0  0
  4  5  1  0  0  0  0
  5  6  2  0  0  0  0
  6  7  1  0  0  0  0
  7  8  1  0  0  0  0
  7  9  2  0  0  0  0
  6 10  1  0  0  0  0
 10 11  1  0  0  0  0
 11 12  1  0  0  0  0
 12 13  2  0  0  0  0
 12 14  1  0  0  0  0
 14 15  2  0  0  0  0
 15 16  1  0  0  0  0
 16 17  2  0  0  0  0
 17 18  1  0  0  0  0
 18 19  1  0  0  0  0
 19 20  2  0  0  0  0
 19 21  2  0  0  0  0
 19 22  1  0  0  0  0
 22 23  1  0  0  0  0
 23 24  1  0  0  0  0
 24 25  1  0  0  0  0
 24 26  1  0  0  0  0
 26 27  1  0  0  0  0
 27 28  1  0  0  0  0
 27 29  1  0  0  0  0
 18 30  2  0  0  0  0
 10 31  2  0  0  0  0
 31  3  1  0  0  0  0
 30 14  1  0  0  0  0
 29 22  1  0  0  0  0
M  END
>  <zinc_id>  (315) 
ZINC000013059739

>  <smiles>  (315) 
COc1ccc(C(C)=O)c(OC(=O)c2cccc(S(=O)(=O)N3C[C@H](C)C[C@@H](C)C3)c2)c1

>  <source_line>  (315) 
315

>  <source_data>  (315) 
ZINC000013059739

>  <source_name>  (315) 


>  <source_label>  (315) 
ZINC000013059739

>  <found_by>  (315) 
ZINC

> <Gold.Version>
5.8.1

> <Gold.Id.Protein>
ID|ID_protein|mol2

> <Gold.Goldscore.Fitness>
61.3784

> <Gold.Goldscore.Internal.Vdw>
2.2233

> <Gold.Goldscore.Internal.Torsion>
-9.7959

> <Gold.Goldscore.External.Vdw>
43.2602

> <Gold.Goldscore.Internal.HBond>
0.0000

> <Gold.Goldscore.External.HBond>
6.9236

> <Gold.Goldscore.Internal.Correction>
-2.5445

> <Gold.Goldscore.Hbonds>
donor molecule, donor type, donor heavy atom, donor atom, acceptor molecule, acceptor atom, score
      P1  H   441  4839       L1    11  0.15
      P1  H   441  4840       L1    20  1.00

> <Gold.Goldscore.Internal.Vdw.Weighted>
2.2233

> <Gold.Goldscore.Internal.Torsion.Weighted>
-9.7959

> <Gold.Goldscore.External.Vdw.Weighted>
59.4828

> <Gold.Goldscore.Internal.HBond.Weighted>
0.0000

> <Gold.Goldscore.External.HBond.Weighted>
6.9236

> <Gold.Goldscore.Internal.Correction.Weighted>
-2.5445

> <Gold.Protein.RotatedTorsions>
[ 4464  112  111  109 ] final   10.21 input   60.00 | X-H torsion
[ 4839  441  440  439 ] final  155.99 input   60.00 | X-H torsion
[ 4985  758  757  756 ] final  138.08 input   60.00 | X-H torsion
[ 5271 1023 1022 1020 ] final -102.40 input   60.00 | X-H torsion
[ 6036 1776 1775 1774 ] final  145.89 input   60.00 | X-H torsion
[ 6078 1819 1818 1817 ] final  -25.90 input   60.00 | X-H torsion
[ 6166 1916 1915 1913 ] final -121.50 input   60.00 | X-H torsion
[ 4818   65   64   63 ] final  -41.14 input   60.00 | X-H torsion
[ 6268 1997 1996 1994 ] final -121.93 input   60.00 | X-H torsion
[ 8592   72   71   70 ] final -134.13 input   60.00 | X-H torsion
[ 4356  100   99   97 ] final   51.05 input   60.00 | X-H torsion
[ 8510  202  201  200 ] final -109.90 input   60.00 | X-H torsion
[ 5330 1065 1064 1063 ] final  -32.59 input   60.00 | X-H torsion
[ 6640 2347 2346 2344 ] final -150.89 input   60.00 | X-H torsion
[ 4452  380  379  378 ] final  -24.80 input   60.00 | X-H torsion
[ 4500  391  390  389 ] final   43.45 input   60.00 | X-H torsion

> <Gold.Protein.ActiveResidues>
 THR8    THR9    PRO10   ILE11   TYR12   TYR13   VAL14   ASN15   ALA16   HIS19  
 HIS22   SER25   VAL29   MET46   THR47   GLY48   THR49   ASP50   GLU51   HIS52  
 GLY53   GLN54   LYS55   VAL56   ALA57   GLU58   THR71   PHE78   ILE93   THR95  
 THR96   HIS100  GLU101  VAL104  TRP108  TYR126  VAL128  SER129  ASP130  GLU131 
 SER132  LEU210  SER211  ILE212  SER213  ARG214  LYS215  ARG216  SER218  VAL219 
 MET220  ASN221  TRP222  SER223  ILE224  PRO225  VAL226  HIS232  CYS233  ILE234 
 TYR235  VAL236  TRP237  LEU238  ASP239  ALA240  LEU241  PHE242  ASN243  TYR244 
 TYR245  THR246  HIS275  VAL276  VAL277  GLY278  LYS279  ASP280  ILE281  LEU282 
 LYS283  PHE284  HIS285  ALA286  ILE287  TYR288  TRP289  PRO290  PHE292  LEU304 
 TRP309 

> <Gold.Protein.RotatedAtoms>
  -33.0683   -8.2766   -5.4957 H   0  0  0  0  0  0  0  0  0  0  0  0  # atno 4356 bound_to 100 
  -31.2044   -9.6915   -9.3011 H   0  0  0  0  0  0  0  0  0  0  0  0  # atno 4452 bound_to 380 
  -45.0480  -11.9144  -15.9203 H   0  0  0  0  0  0  0  0  0  0  0  0  # atno 4464 bound_to 112 
  -34.9702  -11.3176  -16.1911 H   0  0  0  0  0  0  0  0  0  0  0  0  # atno 4500 bound_to 391 
  -30.4307  -15.9126   -2.5888 H   0  0  0  0  0  0  0  0  0  0  0  0  # atno 4818 bound_to 65  
  -47.7678  -11.5556  -13.6993 H   0  0  0  0  0  0  0  0  0  0  0  0  # atno 4839 bound_to 441 
  -49.1059  -11.1491  -12.8095 H   0  0  0  0  0  0  0  0  0  0  0  0  # atno 4840 bound_to 441 
  -49.1021  -10.9221  -14.4514 H   0  0  0  0  0  0  0  0  0  0  0  0  # atno 4841 bound_to 441 
  -38.1912  -17.6779  -15.6059 H   0  0  0  0  0  0  0  0  0  0  0  0  # atno 4985 bound_to 758 
  -54.6118  -16.1835  -13.9189 H   0  0  0  0  0  0  0  0  0  0  0  0  # atno 5271 bound_to 1023
  -53.8028  -15.9437   -8.1297 H   0  0  0  0  0  0  0  0  0  0  0  0  # atno 5330 bound_to 1065
  -54.8434  -17.4375  -17.5598 H   0  0  0  0  0  0  0  0  0  0  0  0  # atno 6036 bound_to 1776
  -44.8028  -17.1273  -19.1105 H   0  0  0  0  0  0  0  0  0  0  0  0  # atno 6078 bound_to 1819
  -48.9313  -15.2423  -11.0625 H   0  0  0  0  0  0  0  0  0  0  0  0  # atno 6166 bound_to 1916
  -35.3133  -15.9229   -4.0280 H   0  0  0  0  0  0  0  0  0  0  0  0  # atno 6268 bound_to 1997
  -49.0794  -19.8597   -2.5512 H   0  0  0  0  0  0  0  0  0  0  0  0  # atno 6640 bound_to 2347
  -35.2826   -7.6649   -1.6361 H   0  0  0  0  0  0  0  0  0  0  0  0  # atno 8510 bound_to 202 
  -32.2982   -8.7295   -5.1542 H   0  0  0  0  0  0  0  0  0  0  0  0  # atno 8592 bound_to 72  
  -45.1396  -10.5022  -16.7236 LP  0  0  0  0  0  0  0  0  0  0  0  0  # atno 8618 bound_to 112 
  -46.2228  -10.8503  -15.5521 LP  0  0  0  0  0  0  0  0  0  0  0  0  # atno 8619 bound_to 112 
  -37.1570  -18.1870  -16.7545 LP  0  0  0  0  0  0  0  0  0  0  0  0  # atno 8637 bound_to 758 
  -38.4722  -17.3110  -17.1662 LP  0  0  0  0  0  0  0  0  0  0  0  0  # atno 8638 bound_to 758 
  -54.6414  -17.0473  -15.2977 LP  0  0  0  0  0  0  0  0  0  0  0  0  # atno 8642 bound_to 1023
  -54.2154  -17.7615  -13.8923 LP  0  0  0  0  0  0  0  0  0  0  0  0  # atno 8643 bound_to 1023
  -54.5845  -16.1577  -18.5311 LP  0  0  0  0  0  0  0  0  0  0  0  0  # atno 8662 bound_to 1776
  -53.3249  -16.9112  -17.8154 LP  0  0  0  0  0  0  0  0  0  0  0  0  # atno 8663 bound_to 1776
  -45.7978  -18.0953  -18.2614 LP  0  0  0  0  0  0  0  0  0  0  0  0  # atno 8672 bound_to 1819
  -46.2962  -17.4445  -19.6738 LP  0  0  0  0  0  0  0  0  0  0  0  0  # atno 8673 bound_to 1819
  -50.4514  -15.8184  -10.9896 LP  0  0  0  0  0  0  0  0  0  0  0  0  # atno 8684 bound_to 1916
  -49.8793  -15.1900  -12.3840 LP  0  0  0  0  0  0  0  0  0  0  0  0  # atno 8685 bound_to 1916
  -31.2477  -16.7890   -3.6899 LP  0  0  0  0  0  0  0  0  0  0  0  0  # atno 8712 bound_to 65  
  -31.6031  -15.2101   -3.4720 LP  0  0  0  0  0  0  0  0  0  0  0  0  # atno 8713 bound_to 65  
  -35.6151  -15.5800   -5.5899 LP  0  0  0  0  0  0  0  0  0  0  0  0  # atno 8724 bound_to 1997
  -34.2860  -14.9739   -4.8600 LP  0  0  0  0  0  0  0  0  0  0  0  0  # atno 8725 bound_to 1997
  -31.4627   -8.7568   -3.7580 LP  0  0  0  0  0  0  0  0  0  0  0  0  # atno 8747 bound_to 72  
  -32.7584   -9.7306   -3.9567 LP  0  0  0  0  0  0  0  0  0  0  0  0  # atno 8748 bound_to 72  
  -32.8871   -6.6639   -5.6160 LP  0  0  0  0  0  0  0  0  0  0  0  0  # atno 8749 bound_to 100 
  -31.9409   -7.6626   -6.4957 LP  0  0  0  0  0  0  0  0  0  0  0  0  # atno 8750 bound_to 100 
  -35.6211   -6.6464   -2.8593 LP  0  0  0  0  0  0  0  0  0  0  0  0  # atno 8754 bound_to 202 
  -34.9731   -6.0756   -1.4734 LP  0  0  0  0  0  0  0  0  0  0  0  0  # atno 8755 bound_to 202 
  -54.4050  -15.3760   -6.7286 LP  0  0  0  0  0  0  0  0  0  0  0  0  # atno 8775 bound_to 1065
  -54.5515  -14.4992   -8.0984 LP  0  0  0  0  0  0  0  0  0  0  0  0  # atno 8776 bound_to 1065
  -49.0367  -20.5041   -1.0575 LP  0  0  0  0  0  0  0  0  0  0  0  0  # atno 8779 bound_to 2347
  -49.5784  -21.3908   -2.3173 LP  0  0  0  0  0  0  0  0  0  0  0  0  # atno 8780 bound_to 2347
  -30.3537   -8.3042   -9.2914 LP  0  0  0  0  0  0  0  0  0  0  0  0  # atno 8787 bound_to 380 
  -30.7400   -9.0384   -7.8848 LP  0  0  0  0  0  0  0  0  0  0  0  0  # atno 8788 bound_to 380 

$$$$
