unknown|11k_best|sdf|8235|dock9
  -GOLD-   3 62123503D 1   1.00000     0.00000

 33 37  0  0  0  0  0  0  0  0  1 V2000
  -47.5606  -12.7996  -14.7533 O   0  0  0  0  0  0  0  0  0  0  0  0
  -47.6097  -14.0438  -14.5305 C   0  0  0  0  0  0  0  0  0  0  0  0
  -47.3380  -14.5939  -13.1795 C   0  0  0  0  0  0  0  0  0  0  0  0
  -46.3837  -13.8083  -12.4697 O   0  0  0  0  0  0  0  0  0  0  0  0
  -46.5489  -13.7596  -11.0820 C   0  0  0  0  0  0  0  0  0  0  0  0
  -47.2652  -14.6738  -10.5774 O   0  0  0  0  0  0  0  0  0  0  0  0
  -45.4220  -13.2851  -10.2693 C   0  0  0  0  0  0  0  0  0  0  0  0
  -44.4262  -12.4488  -10.6109 N   0  0  0  0  0  0  0  0  0  0  0  0
  -43.4884  -12.5814   -9.6421 C   0  0  0  0  0  0  0  0  0  0  0  0
  -42.2745  -11.7625   -9.5317 C   0  0  0  0  0  0  0  0  0  0  0  0
  -42.2611  -10.7839   -8.5454 C   0  0  0  0  0  0  0  0  0  0  0  0
  -41.0748  -10.1354   -8.3050 C   0  0  0  0  0  0  0  0  0  0  0  0
  -40.1060  -10.1379   -9.2768 C   0  0  0  0  0  0  0  0  0  0  0  0
  -40.2140  -10.9470  -10.4006 C   0  0  0  0  0  0  0  0  0  0  0  0
  -41.4568  -11.5137  -10.6277 C   0  0  0  0  0  0  0  0  0  0  0  0
  -44.0133  -13.2493   -8.5861 N   0  0  0  0  0  0  0  0  0  0  0  0
  -43.2724  -13.9405   -7.5726 C   0  0  0  0  0  0  0  0  0  0  0  0
  -43.9510  -14.8828   -6.8441 C   0  0  0  0  0  0  0  0  0  0  0  0
  -43.2248  -15.7327   -6.0317 C   0  0  0  0  0  0  0  0  0  0  0  0
  -41.9482  -15.3511   -5.6930 C   0  0  0  0  0  0  0  0  0  0  0  0
  -41.2301  -14.5683   -6.5706 C   0  0  0  0  0  0  0  0  0  0  0  0
  -41.9016  -13.9103   -7.5740 C   0  0  0  0  0  0  0  0  0  0  0  0
  -45.2685  -13.5007   -8.9554 N   0  0  0  0  0  0  0  0  0  0  0  0
  -47.7855  -14.8705  -15.6785 N   0  0  0  0  0  0  0  0  0  0  0  0
  -47.4109  -16.2529  -15.6401 C   0  0  0  0  0  0  0  0  0  0  0  0
  -47.6330  -17.0333  -16.7677 C   0  0  0  0  0  0  0  0  0  0  0  0
  -46.7553  -18.0513  -17.1191 C   0  0  0  0  0  0  0  0  0  0  0  0
  -45.5266  -18.1730  -16.4858 C   0  0  0  0  0  0  0  0  0  0  0  0
  -45.4702  -17.6436  -15.2023 C   0  0  0  0  0  0  0  0  0  0  0  0
  -46.4165  -16.7150  -14.7867 C   0  0  0  0  0  0  0  0  0  0  0  0
  -44.2306  -18.0632  -14.7151 O   0  0  0  0  0  0  0  0  0  0  0  0
  -43.3228  -18.1581  -15.8104 C   0  0  0  0  0  0  0  0  0  0  0  0
  -44.2224  -18.4113  -16.8867 O   0  0  0  0  0  0  0  0  0  0  0  0
  1  2  2  0  0  0  0
  2  3  1  0  0  0  0
  3  4  1  0  0  0  0
  4  5  1  0  0  0  0
  5  6  2  0  0  0  0
  5  7  1  0  0  0  0
  7  8  1  0  0  0  0
  8  9  2  0  0  0  0
  9 10  1  0  0  0  0
 10 11  2  0  0  0  0
 11 12  1  0  0  0  0
 12 13  2  0  0  0  0
 13 14  1  0  0  0  0
 14 15  2  0  0  0  0
  9 16  1  0  0  0  0
 16 17  1  0  0  0  0
 17 18  2  0  0  0  0
 18 19  1  0  0  0  0
 19 20  2  0  0  0  0
 20 21  1  0  0  0  0
 21 22  2  0  0  0  0
 16 23  1  0  0  0  0
  2 24  1  0  0  0  0
 24 25  1  0  0  0  0
 25 26  2  0  0  0  0
 26 27  1  0  0  0  0
 27 28  2  0  0  0  0
 28 29  1  0  0  0  0
 29 30  2  0  0  0  0
 29 31  1  0  0  0  0
 31 32  1  0  0  0  0
 32 33  1  0  0  0  0
 23  7  2  0  0  0  0
 30 25  1  0  0  0  0
 15 10  1  0  0  0  0
 22 17  1  0  0  0  0
 33 28  1  0  0  0  0
M  END
>  <zinc_id>  (235) 
ZINC000003489318

>  <smiles>  (235) 
O=C(COC(=O)c1nc(-c2ccccc2)n(-c2ccccc2)n1)Nc1ccc2c(c1)OCO2

>  <source_line>  (235) 
235

>  <source_data>  (235) 
ZINC000003489318

>  <source_name>  (235) 


>  <source_label>  (235) 
ZINC000003489318

>  <found_by>  (235) 
ZINC

> <Gold.Version>
5.8.1

> <Gold.Id.Protein>
ID|ID_protein|mol2

> <Gold.Goldscore.Fitness>
66.8477

> <Gold.Goldscore.Internal.Vdw>
1.8578

> <Gold.Goldscore.Internal.Torsion>
-13.5724

> <Gold.Goldscore.External.Vdw>
50.6605

> <Gold.Goldscore.Internal.HBond>
0.0000

> <Gold.Goldscore.External.HBond>
2.1691

> <Gold.Goldscore.Internal.Correction>
-6.7351

> <Gold.Goldscore.Hbonds>
donor molecule, donor type, donor heavy atom, donor atom, acceptor molecule, acceptor atom, score
      P1  H   426  4822       L1    24  0.04
      P1  H   435  4829       L1     1  0.14
      P1  H   441  4840       L1     1  0.05
      P1  H  1916  6166       L1     6  0.66

> <Gold.Goldscore.Internal.Vdw.Weighted>
1.8578

> <Gold.Goldscore.Internal.Torsion.Weighted>
-13.5724

> <Gold.Goldscore.External.Vdw.Weighted>
69.6582

> <Gold.Goldscore.Internal.HBond.Weighted>
0.0000

> <Gold.Goldscore.External.HBond.Weighted>
2.1691

> <Gold.Goldscore.Internal.Correction.Weighted>
-6.7351

> <Gold.Protein.RotatedTorsions>
[ 4464  112  111  109 ] final   37.08 input   60.00 | X-H torsion
[ 4839  441  440  439 ] final  -22.11 input   60.00 | X-H torsion
[ 4985  758  757  756 ] final  -98.99 input   60.00 | X-H torsion
[ 5271 1023 1022 1020 ] final   44.40 input   60.00 | X-H torsion
[ 6036 1776 1775 1774 ] final -158.13 input   60.00 | X-H torsion
[ 6078 1819 1818 1817 ] final   62.62 input   60.00 | X-H torsion
[ 6166 1916 1915 1913 ] final -124.36 input   60.00 | X-H torsion
[ 4818   65   64   63 ] final   65.92 input   60.00 | X-H torsion
[ 6268 1997 1996 1994 ] final -131.68 input   60.00 | X-H torsion
[ 8592   72   71   70 ] final    9.11 input   60.00 | X-H torsion
[ 4356  100   99   97 ] final   -8.83 input   60.00 | X-H torsion
[ 8510  202  201  200 ] final  161.22 input   60.00 | X-H torsion
[ 5330 1065 1064 1063 ] final -110.68 input   60.00 | X-H torsion
[ 6640 2347 2346 2344 ] final  178.52 input   60.00 | X-H torsion
[ 4452  380  379  378 ] final -143.00 input   60.00 | X-H torsion
[ 4500  391  390  389 ] final  -19.78 input   60.00 | X-H torsion

> <Gold.Protein.ActiveResidues>
 THR8    THR9    PRO10   ILE11   TYR12   TYR13   VAL14   ASN15   ALA16   HIS19  
 HIS22   SER25   VAL29   MET46   THR47   GLY48   THR49   ASP50   GLU51   HIS52  
 GLY53   GLN54   LYS55   VAL56   ALA57   GLU58   THR71   PHE78   ILE93   THR95  
 THR96   HIS100  GLU101  VAL104  TRP108  TYR126  VAL128  SER129  ASP130  GLU131 
 SER132  LEU210  SER211  ILE212  SER213  ARG214  LYS215  ARG216  SER218  VAL219 
 MET220  ASN221  TRP222  SER223  ILE224  PRO225  VAL226  HIS232  CYS233  ILE234 
 TYR235  VAL236  TRP237  LEU238  ASP239  ALA240  LEU241  PHE242  ASN243  TYR244 
 TYR245  THR246  HIS275  VAL276  VAL277  GLY278  LYS279  ASP280  ILE281  LEU282 
 LYS283  PHE284  HIS285  ALA286  ILE287  TYR288  TRP289  PRO290  PHE292  LEU304 
 TRP309 

> <Gold.Protein.RotatedAtoms>
  -33.3213   -7.4124   -5.2456 H   0  0  0  0  0  0  0  0  0  0  0  0  # atno 4356 bound_to 100 
  -30.3633   -8.3226   -9.3136 H   0  0  0  0  0  0  0  0  0  0  0  0  # atno 4452 bound_to 380 
  -45.3741  -11.9156  -15.6322 H   0  0  0  0  0  0  0  0  0  0  0  0  # atno 4464 bound_to 112 
  -34.0617  -11.1653  -15.8525 H   0  0  0  0  0  0  0  0  0  0  0  0  # atno 4500 bound_to 391 
  -31.4798  -15.1215   -3.3242 H   0  0  0  0  0  0  0  0  0  0  0  0  # atno 4818 bound_to 65  
  -49.5489  -10.8581  -13.6390 H   0  0  0  0  0  0  0  0  0  0  0  0  # atno 4839 bound_to 441 
  -48.1860  -11.2808  -14.4824 H   0  0  0  0  0  0  0  0  0  0  0  0  # atno 4840 bound_to 441 
  -48.2411  -11.4879  -12.8388 H   0  0  0  0  0  0  0  0  0  0  0  0  # atno 4841 bound_to 441 
  -38.4362  -17.3273  -17.1943 H   0  0  0  0  0  0  0  0  0  0  0  0  # atno 4985 bound_to 758 
  -54.2567  -17.8999  -14.3032 H   0  0  0  0  0  0  0  0  0  0  0  0  # atno 5271 bound_to 1023
  -54.0782  -15.9051   -6.9835 H   0  0  0  0  0  0  0  0  0  0  0  0  # atno 5330 bound_to 1065
  -53.9843  -17.5313  -17.4000 H   0  0  0  0  0  0  0  0  0  0  0  0  # atno 6036 bound_to 1776
  -45.8940  -17.1718  -19.8281 H   0  0  0  0  0  0  0  0  0  0  0  0  # atno 6078 bound_to 1819
  -48.9487  -15.2605  -11.0231 H   0  0  0  0  0  0  0  0  0  0  0  0  # atno 6166 bound_to 1916
  -35.4388  -15.9755   -4.1104 H   0  0  0  0  0  0  0  0  0  0  0  0  # atno 6268 bound_to 1997
  -48.9423  -19.7017   -2.1037 H   0  0  0  0  0  0  0  0  0  0  0  0  # atno 6640 bound_to 2347
  -35.6620   -7.1421   -2.7769 H   0  0  0  0  0  0  0  0  0  0  0  0  # atno 8510 bound_to 202 
  -32.5162   -9.6816   -3.6698 H   0  0  0  0  0  0  0  0  0  0  0  0  # atno 8592 bound_to 72  
  -44.8683  -10.8453  -16.7488 LP  0  0  0  0  0  0  0  0  0  0  0  0  # atno 8618 bound_to 112 
  -46.1658  -10.5060  -15.8171 LP  0  0  0  0  0  0  0  0  0  0  0  0  # atno 8619 bound_to 112 
  -38.2327  -17.6537  -15.6131 LP  0  0  0  0  0  0  0  0  0  0  0  0  # atno 8637 bound_to 758 
  -37.1499  -18.1973  -16.7079 LP  0  0  0  0  0  0  0  0  0  0  0  0  # atno 8638 bound_to 758 
  -54.4865  -16.4510  -13.5989 LP  0  0  0  0  0  0  0  0  0  0  0  0  # atno 8642 bound_to 1023
  -54.7279  -16.6293  -15.2041 LP  0  0  0  0  0  0  0  0  0  0  0  0  # atno 8643 bound_to 1023
  -55.1669  -16.7099  -18.1581 LP  0  0  0  0  0  0  0  0  0  0  0  0  # atno 8662 bound_to 1776
  -53.6075  -16.2645  -18.3493 LP  0  0  0  0  0  0  0  0  0  0  0  0  # atno 8663 bound_to 1776
  -44.7701  -17.3823  -18.6702 LP  0  0  0  0  0  0  0  0  0  0  0  0  # atno 8672 bound_to 1819
  -46.2250  -18.1127  -18.5423 LP  0  0  0  0  0  0  0  0  0  0  0  0  # atno 8673 bound_to 1819
  -50.4780  -15.8165  -11.0284 LP  0  0  0  0  0  0  0  0  0  0  0  0  # atno 8684 bound_to 1916
  -49.8352  -15.1735  -12.3849 LP  0  0  0  0  0  0  0  0  0  0  0  0  # atno 8685 bound_to 1916
  -30.3985  -16.1184   -2.6276 LP  0  0  0  0  0  0  0  0  0  0  0  0  # atno 8712 bound_to 65  
  -31.3958  -16.6773   -3.7937 LP  0  0  0  0  0  0  0  0  0  0  0  0  # atno 8713 bound_to 65  
  -35.5065  -15.4859   -5.6608 LP  0  0  0  0  0  0  0  0  0  0  0  0  # atno 8724 bound_to 1997
  -34.2681  -15.0151   -4.7061 LP  0  0  0  0  0  0  0  0  0  0  0  0  # atno 8725 bound_to 1997
  -32.5855   -8.9754   -5.1342 LP  0  0  0  0  0  0  0  0  0  0  0  0  # atno 8747 bound_to 72  
  -31.4161   -8.5532   -4.0754 LP  0  0  0  0  0  0  0  0  0  0  0  0  # atno 8748 bound_to 72  
  -32.1966   -6.7892   -6.2430 LP  0  0  0  0  0  0  0  0  0  0  0  0  # atno 8749 bound_to 100 
  -32.3767   -8.4076   -6.1206 LP  0  0  0  0  0  0  0  0  0  0  0  0  # atno 8750 bound_to 100 
  -35.1195   -5.8739   -1.9135 LP  0  0  0  0  0  0  0  0  0  0  0  0  # atno 8754 bound_to 202 
  -35.0925   -7.3746   -1.2704 LP  0  0  0  0  0  0  0  0  0  0  0  0  # atno 8755 bound_to 202 
  -54.7090  -14.4771   -7.4431 LP  0  0  0  0  0  0  0  0  0  0  0  0  # atno 8775 bound_to 1065
  -53.9701  -15.4370   -8.5382 LP  0  0  0  0  0  0  0  0  0  0  0  0  # atno 8776 bound_to 1065
  -49.2102  -20.9666   -1.1156 LP  0  0  0  0  0  0  0  0  0  0  0  0  # atno 8779 bound_to 2347
  -49.5431  -21.0873   -2.7098 LP  0  0  0  0  0  0  0  0  0  0  0  0  # atno 8780 bound_to 2347
  -30.7245   -9.0132   -7.8851 LP  0  0  0  0  0  0  0  0  0  0  0  0  # atno 8787 bound_to 380 
  -31.2163   -9.7080   -9.2786 LP  0  0  0  0  0  0  0  0  0  0  0  0  # atno 8788 bound_to 380 

$$$$
