unknown|11k_best|sdf|8240|dock6
  -GOLD-   3 62123563D 1   1.00000     0.00000

 27 29  0  0  0  0  0  0  0  0  1 V2000
  -48.3007  -12.2767  -15.7990 O   0  0  0  0  0  0  0  0  0  0  0  0
  -48.1941  -13.2173  -15.5181 C   0  0  0  0  0  0  0  0  0  0  0  0
  -48.8050  -14.2802  -16.2623 N   0  0  0  0  0  0  0  0  0  0  0  0
  -48.6276  -15.6501  -15.7883 C   0  0  0  0  0  0  0  0  0  0  0  0
  -47.3528  -16.1602  -16.4436 C   0  0  0  0  0  0  0  0  0  0  0  0
  -47.1732  -17.6120  -16.0338 C   0  0  0  0  0  0  0  0  0  0  0  0
  -45.7609  -17.8450  -15.5990 C   0  0  0  0  0  0  0  0  0  0  0  0
  -44.9849  -18.6616  -16.4092 C   0  0  0  0  0  0  0  0  0  0  0  0
  -43.6104  -18.5128  -16.3598 C   0  0  0  0  0  0  0  0  0  0  0  0
  -42.9924  -17.5821  -15.5499 C   0  0  0  0  0  0  0  0  0  0  0  0
  -43.7870  -16.9048  -14.6339 C   0  0  0  0  0  0  0  0  0  0  0  0
  -45.1575  -16.9613  -14.7288 C   0  0  0  0  0  0  0  0  0  0  0  0
  -47.4674  -13.6024  -14.2998 C   0  0  0  0  0  0  0  0  0  0  0  0
  -46.3569  -14.4368  -14.2587 C   0  0  0  0  0  0  0  0  0  0  0  0
  -45.9106  -14.3792  -12.9441 C   0  0  0  0  0  0  0  0  0  0  0  0
  -46.4165  -13.2066  -12.4486 C   0  0  0  0  0  0  0  0  0  0  0  0
  -46.0523  -12.5802  -11.1473 C   0  0  0  0  0  0  0  0  0  0  0  0
  -44.7596  -11.3133  -11.4773 S   0  0  0  0  0  0  0  0  0  0  0  0
  -45.3192  -10.1257  -10.6403 O   0  0  0  0  0  0  0  0  0  0  0  0
  -43.4457  -11.8931  -10.3732 C   0  0  0  0  0  0  0  0  0  0  0  0
  -43.5922  -13.1216   -9.7638 C   0  0  0  0  0  0  0  0  0  0  0  0
  -42.5675  -13.5896   -8.9757 C   0  0  0  0  0  0  0  0  0  0  0  0
  -41.3359  -12.9506   -8.9153 C   0  0  0  0  0  0  0  0  0  0  0  0
  -40.2017  -13.6341   -8.6304 F   0  0  0  0  0  0  0  0  0  0  0  0
  -41.2231  -11.7163   -9.5180 C   0  0  0  0  0  0  0  0  0  0  0  0
  -42.2115  -11.2889  -10.3956 C   0  0  0  0  0  0  0  0  0  0  0  0
  -47.3391  -12.7937  -13.2654 O   0  0  0  0  0  0  0  0  0  0  0  0
  1  2  2  0  0  0  0
  2  3  1  0  0  0  0
  3  4  1  0  0  0  0
  4  5  1  0  0  0  0
  5  6  1  0  0  0  0
  6  7  1  0  0  0  0
  7  8  2  0  0  0  0
  8  9  1  0  0  0  0
  9 10  2  0  0  0  0
 10 11  1  0  0  0  0
 11 12  2  0  0  0  0
  2 13  1  0  0  0  0
 13 14  2  0  0  0  0
 14 15  1  0  0  0  0
 15 16  2  0  0  0  0
 16 17  1  0  0  0  0
 18 17  1  0  0  0  0
 18 19  2  0  0  0  0
 18 20  1  0  0  0  0
 20 21  2  0  0  0  0
 21 22  1  0  0  0  0
 22 23  2  0  0  0  0
 23 24  1  0  0  0  0
 23 25  1  0  0  0  0
 25 26  2  0  0  0  0
 16 27  1  0  0  0  0
 12  7  1  0  0  0  0
 27 13  1  0  0  0  0
 26 20  1  0  0  0  0
M  END
>  <zinc_id>  (240) 
ZINC000006895654

>  <smiles>  (240) 
O=C(NCCCc1ccccc1)c1ccc(C[S@@](=O)c2ccc(F)cc2)o1

>  <source_line>  (240) 
240

>  <source_data>  (240) 
ZINC000006895654

>  <source_name>  (240) 


>  <source_label>  (240) 
ZINC000006895654

>  <found_by>  (240) 
ZINC

> <Gold.Version>
5.8.1

> <Gold.Id.Protein>
ID|ID_protein|mol2

> <Gold.Goldscore.Fitness>
66.1040

> <Gold.Goldscore.Internal.Vdw>
2.3398

> <Gold.Goldscore.Internal.Torsion>
-5.9992

> <Gold.Goldscore.External.Vdw>
46.1881

> <Gold.Goldscore.Internal.HBond>
0.0000

> <Gold.Goldscore.External.HBond>
7.7851

> <Gold.Goldscore.Internal.Correction>
1.5304

> <Gold.Goldscore.Hbonds>
donor molecule, donor type, donor heavy atom, donor atom, acceptor molecule, acceptor atom, score
      P1  H   426  4822       L1     3  0.42
      P1  H   435  4829       L1     1  1.00
      P1  H   441  4840       L1     1  0.14
      P1  H   441  4841       L1    27  0.40

> <Gold.Goldscore.Internal.Vdw.Weighted>
2.3398

> <Gold.Goldscore.Internal.Torsion.Weighted>
-5.9992

> <Gold.Goldscore.External.Vdw.Weighted>
63.5086

> <Gold.Goldscore.Internal.HBond.Weighted>
0.0000

> <Gold.Goldscore.External.HBond.Weighted>
7.7851

> <Gold.Goldscore.Internal.Correction.Weighted>
1.5304

> <Gold.Protein.RotatedTorsions>
[ 4464  112  111  109 ] final    5.90 input   60.00 | X-H torsion
[ 4839  441  440  439 ] final  -59.45 input   60.00 | X-H torsion
[ 4985  758  757  756 ] final -127.39 input   60.00 | X-H torsion
[ 5271 1023 1022 1020 ] final   31.06 input   60.00 | X-H torsion
[ 6036 1776 1775 1774 ] final   82.38 input   60.00 | X-H torsion
[ 6078 1819 1818 1817 ] final    4.42 input   60.00 | X-H torsion
[ 6166 1916 1915 1913 ] final -124.15 input   60.00 | X-H torsion
[ 4818   65   64   63 ] final -175.48 input   60.00 | X-H torsion
[ 6268 1997 1996 1994 ] final  119.39 input   60.00 | X-H torsion
[ 8592   72   71   70 ] final -138.79 input   60.00 | X-H torsion
[ 4356  100   99   97 ] final  161.21 input   60.00 | X-H torsion
[ 8510  202  201  200 ] final  -99.55 input   60.00 | X-H torsion
[ 5330 1065 1064 1063 ] final  169.80 input   60.00 | X-H torsion
[ 6640 2347 2346 2344 ] final   18.47 input   60.00 | X-H torsion
[ 4452  380  379  378 ] final -168.76 input   60.00 | X-H torsion
[ 4500  391  390  389 ] final  130.86 input   60.00 | X-H torsion

> <Gold.Protein.ActiveResidues>
 THR8    THR9    PRO10   ILE11   TYR12   TYR13   VAL14   ASN15   ALA16   HIS19  
 HIS22   SER25   VAL29   MET46   THR47   GLY48   THR49   ASP50   GLU51   HIS52  
 GLY53   GLN54   LYS55   VAL56   ALA57   GLU58   THR71   PHE78   ILE93   THR95  
 THR96   HIS100  GLU101  VAL104  TRP108  TYR126  VAL128  SER129  ASP130  GLU131 
 SER132  LEU210  SER211  ILE212  SER213  ARG214  LYS215  ARG216  SER218  VAL219 
 MET220  ASN221  TRP222  SER223  ILE224  PRO225  VAL226  HIS232  CYS233  ILE234 
 TYR235  VAL236  TRP237  LEU238  ASP239  ALA240  LEU241  PHE242  ASN243  TYR244 
 TYR245  THR246  HIS275  VAL276  VAL277  GLY278  LYS279  ASP280  ILE281  LEU282 
 LYS283  PHE284  HIS285  ALA286  ILE287  TYR288  TRP289  PRO290  PHE292  LEU304 
 TRP309 

> <Gold.Protein.RotatedAtoms>
  -31.9753   -7.8184   -6.4717 H   0  0  0  0  0  0  0  0  0  0  0  0  # atno 4356 bound_to 100 
  -30.2807   -8.2182   -8.9180 H   0  0  0  0  0  0  0  0  0  0  0  0  # atno 4452 bound_to 380 
  -45.0025  -11.8971  -15.9712 H   0  0  0  0  0  0  0  0  0  0  0  0  # atno 4464 bound_to 112 
  -35.2396  -10.2647  -16.8928 H   0  0  0  0  0  0  0  0  0  0  0  0  # atno 4500 bound_to 391 
  -31.4072  -16.6576   -3.8011 H   0  0  0  0  0  0  0  0  0  0  0  0  # atno 4818 bound_to 65  
  -49.3857  -11.0025  -13.0664 H   0  0  0  0  0  0  0  0  0  0  0  0  # atno 4839 bound_to 441 
  -48.7409  -11.0455  -14.5927 H   0  0  0  0  0  0  0  0  0  0  0  0  # atno 4840 bound_to 441 
  -47.8494  -11.5788  -13.3011 H   0  0  0  0  0  0  0  0  0  0  0  0  # atno 4841 bound_to 441 
  -38.6717  -17.2268  -16.8130 H   0  0  0  0  0  0  0  0  0  0  0  0  # atno 4985 bound_to 758 
  -54.2311  -17.8520  -14.0926 H   0  0  0  0  0  0  0  0  0  0  0  0  # atno 5271 bound_to 1023
  -54.6380  -14.8487   -6.9143 H   0  0  0  0  0  0  0  0  0  0  0  0  # atno 5330 bound_to 1065
  -55.1623  -16.7186  -18.1538 H   0  0  0  0  0  0  0  0  0  0  0  0  # atno 6036 bound_to 1776
  -45.0602  -16.9976  -19.5064 H   0  0  0  0  0  0  0  0  0  0  0  0  # atno 6078 bound_to 1819
  -48.9474  -15.2592  -11.0259 H   0  0  0  0  0  0  0  0  0  0  0  0  # atno 6166 bound_to 1916
  -35.6236  -15.5938   -5.5738 H   0  0  0  0  0  0  0  0  0  0  0  0  # atno 6268 bound_to 1997
  -49.4348  -21.3891   -1.5460 H   0  0  0  0  0  0  0  0  0  0  0  0  # atno 6640 bound_to 2347
  -35.2159   -7.5919   -1.4991 H   0  0  0  0  0  0  0  0  0  0  0  0  # atno 8510 bound_to 202 
  -32.2374   -8.6853   -5.1421 H   0  0  0  0  0  0  0  0  0  0  0  0  # atno 8592 bound_to 72  
  -45.1916  -10.4574  -16.7057 LP  0  0  0  0  0  0  0  0  0  0  0  0  # atno 8618 bound_to 112 
  -46.2166  -10.9126  -15.5188 LP  0  0  0  0  0  0  0  0  0  0  0  0  # atno 8619 bound_to 112 
  -37.8431  -17.9015  -15.5857 LP  0  0  0  0  0  0  0  0  0  0  0  0  # atno 8637 bound_to 758 
  -37.3022  -18.0507  -17.1193 LP  0  0  0  0  0  0  0  0  0  0  0  0  # atno 8638 bound_to 758 
  -54.5498  -16.2957  -13.7397 LP  0  0  0  0  0  0  0  0  0  0  0  0  # atno 8642 bound_to 1023
  -54.6903  -16.8329  -15.2753 LP  0  0  0  0  0  0  0  0  0  0  0  0  # atno 8643 bound_to 1023
  -53.6136  -16.2603  -18.3532 LP  0  0  0  0  0  0  0  0  0  0  0  0  # atno 8662 bound_to 1776
  -53.9747  -17.5324  -17.3951 LP  0  0  0  0  0  0  0  0  0  0  0  0  # atno 8663 bound_to 1776
  -45.3382  -17.9274  -18.2002 LP  0  0  0  0  0  0  0  0  0  0  0  0  # atno 8672 bound_to 1819
  -46.4966  -17.7430  -19.3363 LP  0  0  0  0  0  0  0  0  0  0  0  0  # atno 8673 bound_to 1819
  -50.4762  -15.8166  -11.0256 LP  0  0  0  0  0  0  0  0  0  0  0  0  # atno 8684 bound_to 1916
  -49.8384  -15.1747  -12.3849 LP  0  0  0  0  0  0  0  0  0  0  0  0  # atno 8685 bound_to 1916
  -31.4699  -15.1085   -3.3067 LP  0  0  0  0  0  0  0  0  0  0  0  0  # atno 8712 bound_to 65  
  -30.3975  -16.1403   -2.6344 LP  0  0  0  0  0  0  0  0  0  0  0  0  # atno 8713 bound_to 65  
  -34.2901  -14.9695   -4.8808 LP  0  0  0  0  0  0  0  0  0  0  0  0  # atno 8724 bound_to 1997
  -35.2984  -15.9158   -4.0122 LP  0  0  0  0  0  0  0  0  0  0  0  0  # atno 8725 bound_to 1997
  -31.4866   -8.8050   -3.7034 LP  0  0  0  0  0  0  0  0  0  0  0  0  # atno 8747 bound_to 72  
  -32.7958   -9.7269   -4.0235 LP  0  0  0  0  0  0  0  0  0  0  0  0  # atno 8748 bound_to 72  
  -33.1567   -8.1723   -5.4100 LP  0  0  0  0  0  0  0  0  0  0  0  0  # atno 8749 bound_to 100 
  -32.7720   -6.6157   -5.7189 LP  0  0  0  0  0  0  0  0  0  0  0  0  # atno 8750 bound_to 100 
  -35.6481   -6.8144   -2.8617 LP  0  0  0  0  0  0  0  0  0  0  0  0  # atno 8754 bound_to 202 
  -35.0132   -5.9811   -1.6091 LP  0  0  0  0  0  0  0  0  0  0  0  0  # atno 8755 bound_to 202 
  -54.2751  -14.8616   -8.5006 LP  0  0  0  0  0  0  0  0  0  0  0  0  # atno 8775 bound_to 1065
  -53.8402  -16.1164   -7.5504 LP  0  0  0  0  0  0  0  0  0  0  0  0  # atno 8776 bound_to 1065
  -49.3706  -20.4964   -2.9051 LP  0  0  0  0  0  0  0  0  0  0  0  0  # atno 8779 bound_to 2347
  -48.8866  -19.8582   -1.4820 LP  0  0  0  0  0  0  0  0  0  0  0  0  # atno 8780 bound_to 2347
  -30.9431   -9.3622   -7.9690 LP  0  0  0  0  0  0  0  0  0  0  0  0  # atno 8787 bound_to 380 
  -31.0808   -9.4641   -9.5930 LP  0  0  0  0  0  0  0  0  0  0  0  0  # atno 8788 bound_to 380 

$$$$
