unknown|11k_best|sdf|4693|dock1
  -GOLD-   3 32122 13D 1   1.00000     0.00000

 29 29  0  0  0  0  0  0  0  0  4 V2000
  -46.9695  -14.1610   -6.1105 C   0  0  0  0  0  0  0  0  0  0  0  0
  -47.1595  -13.9888   -6.4764 N   0  3  0  0  0  0  0  0  0  0  0  0
  -47.2422  -12.5651   -6.5496 C   0  0  0  0  0  0  0  0  0  0  0  0
  -48.3950  -14.5354   -6.0239 C   0  0  0  0  0  0  0  0  0  0  0  0
  -46.7499  -14.5927   -7.7348 C   0  0  0  0  0  0  0  0  0  0  0  0
  -47.6976  -13.8636   -8.8719 C   0  0  2  0  0  0  0  0  0  0  0  0
  -48.7359  -15.1471   -8.9250 C   0  0  0  0  0  0  0  0  0  0  0  0
  -50.0887  -14.5558   -9.2279 C   0  0  0  0  0  0  0  0  0  0  0  0
  -51.1006  -15.1791   -8.2743 C   0  0  0  0  0  0  0  0  0  0  0  0
  -51.0836  -16.6935   -8.4475 C   0  0  0  0  0  0  0  0  0  0  0  0
  -52.1557  -17.2644   -7.5372 C   0  0  0  0  0  0  0  0  0  0  0  0
  -52.6030  -18.6219   -8.0115 C   0  0  0  0  0  0  0  0  0  0  0  0
  -51.5409  -19.6170   -7.6706 C   0  0  0  0  0  0  0  0  0  0  0  0
  -50.9970  -20.2634   -8.5875 O   0  0  0  0  0  0  0  0  0  0  0  0
  -51.4394  -20.1542   -6.3876 O   0  0  0  0  0  0  0  0  0  0  0  0
  -46.8690  -14.4215  -10.0214 O   0  0  0  0  0  0  0  0  0  0  0  0
  -47.0732  -13.2973  -11.2382 P   0  0  1  0  0  0  0  0  0  0  0  0
  -48.1577  -12.2983  -10.9342 O   0  0  0  0  0  0  0  0  0  0  0  0
  -45.5897  -12.5560  -11.5885 O   0  0  0  0  0  0  0  0  0  0  0  0
  -47.5644  -14.0440  -12.7152 O   0  0  0  0  0  0  0  0  0  0  0  0
  -46.5710  -14.8369  -13.3002 C   0  0  0  0  0  0  0  0  0  0  0  0
  -45.2479  -14.4146  -13.2262 C   0  0  0  0  0  0  0  0  0  0  0  0
  -44.2682  -14.9260  -14.0711 C   0  0  0  0  0  0  0  0  0  0  0  0
  -44.6102  -15.8999  -15.0019 C   0  0  0  0  0  0  0  0  0  0  0  0
  -43.7485  -17.0276  -15.2059 N   0  3  0  0  0  0  0  0  0  0  0  0
  -42.5352  -16.9046  -14.9144 O   0  0  0  0  0  0  0  0  0  0  0  0
  -44.0129  -17.9021  -16.2404 O   0  5  0  0  0  0  0  0  0  0  0  0
  -45.9522  -15.9485  -15.3604 C   0  0  0  0  0  0  0  0  0  0  0  0
  -46.9164  -15.4040  -14.5219 C   0  0  0  0  0  0  0  0  0  0  0  0
  1  2  1  0  0  0  0
  2  3  1  0  0  0  0
  2  4  1  0  0  0  0
  2  5  1  0  0  0  0
  6  5  1  0  0  0  0
  6  7  1  0  0  0  0
  7  8  1  0  0  0  0
  8  9  1  0  0  0  0
  9 10  1  0  0  0  0
 10 11  1  0  0  0  0
 11 12  1  0  0  0  0
 12 13  1  0  0  0  0
 13 14  2  0  0  0  0
 13 15  1  0  0  0  0
  6 16  1  0  0  0  0
 17 16  1  0  0  0  0
 17 18  2  0  0  0  0
 17 19  1  0  0  0  0
 17 20  1  0  0  0  0
 20 21  1  0  0  0  0
 21 22  2  0  0  0  0
 22 23  1  0  0  0  0
 23 24  2  0  0  0  0
 24 25  1  0  0  0  0
 25 26  2  0  0  0  0
 25 27  1  0  0  0  0
 24 28  1  0  0  0  0
 28 29  2  0  0  0  0
 29 21  1  0  0  0  0
M  CHG  1   2   1
M  CHG  1  25   1
M  CHG  1  27  -1
M  END
>  <zinc_id>  (693) 
ZINC000097974120

>  <smiles>  (693) 
C[N+](C)(C)C[C@H](CCCCCCC(=O)O)O[P@@](=O)(O)Oc1ccc([N+](=O)[O-])cc1

>  <source_line>  (693) 
693

>  <source_data>  (693) 
ZINC000097974120

>  <source_name>  (693) 


>  <source_label>  (693) 
ZINC000097974120

>  <found_by>  (693) 
ZINC

> <Gold.Version>
5.8.1

> <Gold.Id.Protein>
ID|ID_protein|mol2

> <Gold.Goldscore.Fitness>
94.5000

> <Gold.Goldscore.Internal.Vdw>
0.5111

> <Gold.Goldscore.Internal.Torsion>
-11.9718

> <Gold.Goldscore.External.Vdw>
43.9550

> <Gold.Goldscore.Internal.HBond>
0.0000

> <Gold.Goldscore.External.HBond>
37.6978

> <Gold.Goldscore.Internal.Correction>
-7.8248

> <Gold.Goldscore.Hbonds>
donor molecule, donor type, donor heavy atom, donor atom, acceptor molecule, acceptor atom, score
      P1  H   441  4840       L1    18  1.00
      P1  H  1741  5997       L1    14  1.00
      P1  H  1819  6078       L1    27  1.00
      P1  H  1916  6166       L1    20  1.00
      P1  H  1932  6181       L1    14  0.37

> <Gold.Goldscore.Internal.Vdw.Weighted>
0.5111

> <Gold.Goldscore.Internal.Torsion.Weighted>
-11.9718

> <Gold.Goldscore.External.Vdw.Weighted>
60.4381

> <Gold.Goldscore.Internal.HBond.Weighted>
0.0000

> <Gold.Goldscore.External.HBond.Weighted>
37.6978

> <Gold.Goldscore.Internal.Correction.Weighted>
-7.8248

> <Gold.Protein.RotatedTorsions>
[ 4464  112  111  109 ] final  165.43 input   60.00 | X-H torsion
[ 4839  441  440  439 ] final  104.94 input   60.00 | X-H torsion
[ 4985  758  757  756 ] final -144.48 input   60.00 | X-H torsion
[ 5271 1023 1022 1020 ] final  160.52 input   60.00 | X-H torsion
[ 6036 1776 1775 1774 ] final   40.20 input   60.00 | X-H torsion
[ 6078 1819 1818 1817 ] final  -95.29 input   60.00 | X-H torsion
[ 6166 1916 1915 1913 ] final  -62.67 input   60.00 | X-H torsion
[ 4818   65   64   63 ] final -174.02 input   60.00 | X-H torsion
[ 6268 1997 1996 1994 ] final  125.41 input   60.00 | X-H torsion
[ 8592   72   71   70 ] final -131.93 input   60.00 | X-H torsion
[ 4356  100   99   97 ] final -137.49 input   60.00 | X-H torsion
[ 8510  202  201  200 ] final  163.48 input   60.00 | X-H torsion
[ 5330 1065 1064 1063 ] final   33.89 input   60.00 | X-H torsion
[ 6640 2347 2346 2344 ] final -116.98 input   60.00 | X-H torsion
[ 4452  380  379  378 ] final   -6.79 input   60.00 | X-H torsion
[ 4500  391  390  389 ] final  149.04 input   60.00 | X-H torsion

> <Gold.Protein.ActiveResidues>
 THR8    THR9    PRO10   ILE11   TYR12   TYR13   VAL14   ASN15   ALA16   HIS19  
 HIS22   SER25   VAL29   MET46   THR47   GLY48   THR49   ASP50   GLU51   HIS52  
 GLY53   GLN54   LYS55   VAL56   ALA57   GLU58   THR71   PHE78   ILE93   THR95  
 THR96   HIS100  GLU101  VAL104  TRP108  TYR126  VAL128  SER129  ASP130  GLU131 
 SER132  LEU210  SER211  ILE212  SER213  ARG214  LYS215  ARG216  SER218  VAL219 
 MET220  ASN221  TRP222  SER223  ILE224  PRO225  VAL226  HIS232  CYS233  ILE234 
 TYR235  VAL236  TRP237  LEU238  ASP239  ALA240  LEU241  PHE242  ASN243  TYR244 
 TYR245  THR246  HIS275  VAL276  VAL277  GLY278  LYS279  ASP280  ILE281  LEU282 
 LYS283  PHE284  HIS285  ALA286  ILE287  TYR288  TRP289  PRO290  PHE292  LEU304 
 TRP309 

> <Gold.Protein.RotatedAtoms>
  -32.1243   -6.8888   -6.3139 H   0  0  0  0  0  0  0  0  0  0  0  0  # atno 4356 bound_to 100 
  -31.2513   -9.7884   -9.0285 H   0  0  0  0  0  0  0  0  0  0  0  0  # atno 4452 bound_to 380 
  -46.1100  -10.4257  -15.9128 H   0  0  0  0  0  0  0  0  0  0  0  0  # atno 4464 bound_to 112 
  -35.0642  -10.0311  -16.9393 H   0  0  0  0  0  0  0  0  0  0  0  0  # atno 4500 bound_to 391 
  -31.3914  -16.6724   -3.7911 H   0  0  0  0  0  0  0  0  0  0  0  0  # atno 4818 bound_to 65  
  -48.0970  -11.3249  -14.4195 H   0  0  0  0  0  0  0  0  0  0  0  0  # atno 4839 bound_to 441 
  -48.3407  -11.4558  -12.7852 H   0  0  0  0  0  0  0  0  0  0  0  0  # atno 4840 bound_to 441 
  -49.5382  -10.8461  -13.7556 H   0  0  0  0  0  0  0  0  0  0  0  0  # atno 4841 bound_to 441 
  -38.7305  -17.2236  -16.5412 H   0  0  0  0  0  0  0  0  0  0  0  0  # atno 4985 bound_to 758 
  -54.7188  -16.6896  -15.2233 H   0  0  0  0  0  0  0  0  0  0  0  0  # atno 5271 bound_to 1023
  -54.1505  -15.0811   -8.5637 H   0  0  0  0  0  0  0  0  0  0  0  0  # atno 5330 bound_to 1065
  -54.7876  -16.2598  -18.4748 H   0  0  0  0  0  0  0  0  0  0  0  0  # atno 6036 bound_to 1776
  -45.0712  -17.7543  -18.2915 H   0  0  0  0  0  0  0  0  0  0  0  0  # atno 6078 bound_to 1819
  -49.0464  -15.0187  -11.9470 H   0  0  0  0  0  0  0  0  0  0  0  0  # atno 6166 bound_to 1916
  -35.6811  -15.6501   -5.5176 H   0  0  0  0  0  0  0  0  0  0  0  0  # atno 6268 bound_to 1997
  -49.2782  -20.2664   -2.8564 H   0  0  0  0  0  0  0  0  0  0  0  0  # atno 6640 bound_to 2347
  -35.6611   -7.1758   -2.7617 H   0  0  0  0  0  0  0  0  0  0  0  0  # atno 8510 bound_to 202 
  -32.3267   -8.7513   -5.1579 H   0  0  0  0  0  0  0  0  0  0  0  0  # atno 8592 bound_to 72  
  -45.4845  -11.8852  -15.5573 LP  0  0  0  0  0  0  0  0  0  0  0  0  # atno 8618 bound_to 112 
  -44.8084  -10.9666  -16.7259 LP  0  0  0  0  0  0  0  0  0  0  0  0  # atno 8619 bound_to 112 
  -37.6141  -18.0338  -15.6779 LP  0  0  0  0  0  0  0  0  0  0  0  0  # atno 8637 bound_to 758 
  -37.4721  -17.9217  -17.3008 LP  0  0  0  0  0  0  0  0  0  0  0  0  # atno 8638 bound_to 758 
  -54.2440  -17.8967  -14.2406 LP  0  0  0  0  0  0  0  0  0  0  0  0  # atno 8642 bound_to 1023
  -54.5050  -16.4024  -13.6358 LP  0  0  0  0  0  0  0  0  0  0  0  0  # atno 8643 bound_to 1023
  -53.3161  -16.7258  -17.9594 LP  0  0  0  0  0  0  0  0  0  0  0  0  # atno 8662 bound_to 1776
  -54.6494  -17.5290  -17.4657 LP  0  0  0  0  0  0  0  0  0  0  0  0  # atno 8663 bound_to 1776
  -46.4992  -17.9186  -19.0544 LP  0  0  0  0  0  0  0  0  0  0  0  0  # atno 8672 bound_to 1819
  -45.3245  -16.9898  -19.7055 LP  0  0  0  0  0  0  0  0  0  0  0  0  # atno 8673 bound_to 1819
  -49.6434  -15.6483  -10.5704 LP  0  0  0  0  0  0  0  0  0  0  0  0  # atno 8684 bound_to 1916
  -50.5715  -15.5851  -11.9124 LP  0  0  0  0  0  0  0  0  0  0  0  0  # atno 8685 bound_to 1916
  -31.4847  -15.1165   -3.3239 LP  0  0  0  0  0  0  0  0  0  0  0  0  # atno 8712 bound_to 65  
  -30.3986  -16.1174   -2.6273 LP  0  0  0  0  0  0  0  0  0  0  0  0  # atno 8713 bound_to 65  
  -34.3144  -14.9528   -4.9752 LP  0  0  0  0  0  0  0  0  0  0  0  0  # atno 8724 bound_to 1997
  -35.2162  -15.8758   -3.9745 LP  0  0  0  0  0  0  0  0  0  0  0  0  # atno 8725 bound_to 1997
  -31.4531   -8.7347   -3.7851 LP  0  0  0  0  0  0  0  0  0  0  0  0  # atno 8747 bound_to 72  
  -32.7394   -9.7308   -3.9258 LP  0  0  0  0  0  0  0  0  0  0  0  0  # atno 8748 bound_to 72  
  -32.4776   -8.4518   -6.0304 LP  0  0  0  0  0  0  0  0  0  0  0  0  # atno 8749 bound_to 100 
  -33.3010   -7.2724   -5.2573 LP  0  0  0  0  0  0  0  0  0  0  0  0  # atno 8750 bound_to 100 
  -35.1327   -5.8694   -1.9480 LP  0  0  0  0  0  0  0  0  0  0  0  0  # atno 8754 bound_to 202 
  -35.0802   -7.3452   -1.2511 LP  0  0  0  0  0  0  0  0  0  0  0  0  # atno 8755 bound_to 202 
  -53.9136  -16.0815   -7.3023 LP  0  0  0  0  0  0  0  0  0  0  0  0  # atno 8775 bound_to 1065
  -54.6927  -14.6625   -7.0876 LP  0  0  0  0  0  0  0  0  0  0  0  0  # atno 8776 bound_to 1065
  -48.9095  -20.0224   -1.2904 LP  0  0  0  0  0  0  0  0  0  0  0  0  # atno 8779 bound_to 2347
  -49.5054  -21.4628   -1.7770 LP  0  0  0  0  0  0  0  0  0  0  0  0  # atno 8780 bound_to 2347
  -30.4578   -8.4562   -9.5221 LP  0  0  0  0  0  0  0  0  0  0  0  0  # atno 8787 bound_to 380 
  -30.5886   -8.7888   -7.9287 LP  0  0  0  0  0  0  0  0  0  0  0  0  # atno 8788 bound_to 380 

$$$$
