unknown|11k_best|sdf|8300|dock1
  -GOLD-   3 721 1 93D 1   1.00000     0.00000

 32 35  0  0  0  0  0  0  0  0  1 V2000
  -43.4308  -11.6834  -10.9352 C   0  0  0  0  0  0  0  0  0  0  0  0
  -43.9010  -11.9802  -11.0217 O   0  0  0  0  0  0  0  0  0  0  0  0
  -44.9750  -12.7803  -11.4230 C   0  0  0  0  0  0  0  0  0  0  0  0
  -44.9094  -13.4886  -12.6170 C   0  0  0  0  0  0  0  0  0  0  0  0
  -46.0937  -13.9552  -13.1248 C   0  0  0  0  0  0  0  0  0  0  0  0
  -47.2529  -13.9104  -12.3594 C   0  0  0  0  0  0  0  0  0  0  0  0
  -47.2379  -13.5600  -11.0263 C   0  0  0  0  0  0  0  0  0  0  0  0
  -47.9452  -14.2927  -10.0187 N   0  0  0  0  0  0  0  0  0  0  0  0
  -47.7820  -14.0651   -8.6322 C   0  0  0  0  0  0  0  0  0  0  0  0
  -47.2757  -12.9488   -8.3070 O   0  0  0  0  0  0  0  0  0  0  0  0
  -48.5824  -14.7462   -7.5795 C   0  0  0  0  0  0  0  0  0  0  0  0
  -50.3256  -14.7751   -7.8940 S   0  0  0  0  0  0  0  0  0  0  0  0
  -51.1012  -16.3533   -7.8342 C   0  0  0  0  0  0  0  0  0  0  0  0
  -51.5819  -16.9039   -8.9769 N   0  0  0  0  0  0  0  0  0  0  0  0
  -51.7461  -18.1708   -8.6939 N   0  0  0  0  0  0  0  0  0  0  0  0
  -51.9867  -18.3348   -7.3632 C   0  0  0  0  0  0  0  0  0  0  0  0
  -51.4735  -19.7749   -6.7079 C   0  0  2  0  0  0  0  0  0  0  0  0
  -51.4178  -20.4737   -8.1010 O   0  0  0  0  0  0  0  0  0  0  0  0
  -53.0297  -20.2513   -6.3924 C   0  0  0  0  0  0  0  0  0  0  0  0
  -52.8670  -21.4157   -5.6338 C   0  0  0  0  0  0  0  0  0  0  0  0
  -54.0260  -22.1092   -5.3216 C   0  0  0  0  0  0  0  0  0  0  0  0
  -55.0721  -22.0857   -6.2204 C   0  0  0  0  0  0  0  0  0  0  0  0
  -54.9729  -21.2176   -7.2822 C   0  0  0  0  0  0  0  0  0  0  0  0
  -53.8162  -20.4805   -7.4801 C   0  0  0  0  0  0  0  0  0  0  0  0
  -51.4016  -17.2142   -6.8493 N   0  0  0  0  0  0  0  0  0  0  0  0
  -50.9289  -16.9968   -5.5195 C   0  0  0  0  0  0  0  0  0  0  0  0
  -50.0585  -15.9643   -5.1908 C   0  0  0  0  0  0  0  0  0  0  0  0
  -49.7896  -15.8043   -3.8354 C   0  0  0  0  0  0  0  0  0  0  0  0
  -49.8994  -16.8842   -2.9672 C   0  0  0  0  0  0  0  0  0  0  0  0
  -50.7177  -17.9325   -3.3142 C   0  0  0  0  0  0  0  0  0  0  0  0
  -50.9865  -18.0912   -4.6635 C   0  0  0  0  0  0  0  0  0  0  0  0
  -46.0837  -12.9160  -10.5960 C   0  0  0  0  0  0  0  0  0  0  0  0
  1  2  1  0  0  0  0
  2  3  1  0  0  0  0
  3  4  2  0  0  0  0
  4  5  1  0  0  0  0
  5  6  2  0  0  0  0
  6  7  1  0  0  0  0
  7  8  1  0  0  0  0
  8  9  1  0  0  0  0
  9 10  2  0  0  0  0
  9 11  1  0  0  0  0
 11 12  1  0  0  0  0
 12 13  1  0  0  0  0
 13 14  2  0  0  0  0
 14 15  1  0  0  0  0
 15 16  2  0  0  0  0
 17 16  1  0  0  0  0
 17 18  1  0  0  0  0
 17 19  1  0  0  0  0
 19 20  2  0  0  0  0
 20 21  1  0  0  0  0
 21 22  2  0  0  0  0
 22 23  1  0  0  0  0
 23 24  2  0  0  0  0
 16 25  1  0  0  0  0
 25 26  1  0  0  0  0
 26 27  2  0  0  0  0
 27 28  1  0  0  0  0
 28 29  2  0  0  0  0
 29 30  1  0  0  0  0
 30 31  2  0  0  0  0
  7 32  2  0  0  0  0
 32  3  1  0  0  0  0
 25 13  1  0  0  0  0
 31 26  1  0  0  0  0
 24 19  1  0  0  0  0
M  END
>  <zinc_id>  (300) 
ZINC000002863034

>  <smiles>  (300) 
COc1cccc(NC(=O)CSc2nnc([C@H](O)c3ccccc3)n2-c2ccccc2)c1

>  <source_line>  (300) 
300

>  <source_data>  (300) 
ZINC000002863034

>  <source_name>  (300) 


>  <source_label>  (300) 
ZINC000002863034

>  <found_by>  (300) 
ZINC

> <Gold.Version>
5.8.1

> <Gold.Id.Protein>
ID|ID_protein|mol2

> <Gold.Goldscore.Fitness>
72.8271

> <Gold.Goldscore.Internal.Vdw>
-2.1593

> <Gold.Goldscore.Internal.Torsion>
-7.9394

> <Gold.Goldscore.External.Vdw>
40.2009

> <Gold.Goldscore.Internal.HBond>
0.0000

> <Gold.Goldscore.External.HBond>
22.1554

> <Gold.Goldscore.Internal.Correction>
-5.4941

> <Gold.Goldscore.Hbonds>
donor molecule, donor type, donor heavy atom, donor atom, acceptor molecule, acceptor atom, score
      P1  H  1741  5997       L1    18  1.00
      P1  H  1916  6166       L1     8  1.00
      P1  H  1932  6181       L1    18  1.00
      P1  H  1065  5330       L1    14  0.08

> <Gold.Goldscore.Internal.Vdw.Weighted>
-2.1593

> <Gold.Goldscore.Internal.Torsion.Weighted>
-7.9394

> <Gold.Goldscore.External.Vdw.Weighted>
55.2762

> <Gold.Goldscore.Internal.HBond.Weighted>
0.0000

> <Gold.Goldscore.External.HBond.Weighted>
22.1554

> <Gold.Goldscore.Internal.Correction.Weighted>
-5.4941

> <Gold.Protein.RotatedTorsions>
[ 4464  112  111  109 ] final -135.39 input   60.00 | X-H torsion
[ 4839  441  440  439 ] final  119.90 input   60.00 | X-H torsion
[ 4985  758  757  756 ] final  170.40 input   60.00 | X-H torsion
[ 5271 1023 1022 1020 ] final -146.07 input   60.00 | X-H torsion
[ 6036 1776 1775 1774 ] final    3.06 input   60.00 | X-H torsion
[ 6078 1819 1818 1817 ] final  -87.74 input   60.00 | X-H torsion
[ 6166 1916 1915 1913 ] final -123.21 input   60.00 | X-H torsion
[ 4818   65   64   63 ] final   97.70 input   60.00 | X-H torsion
[ 6268 1997 1996 1994 ] final   72.12 input   60.00 | X-H torsion
[ 8592   72   71   70 ] final   91.61 input   60.00 | X-H torsion
[ 4356  100   99   97 ] final   89.79 input   60.00 | X-H torsion
[ 8510  202  201  200 ] final  -40.60 input   60.00 | X-H torsion
[ 5330 1065 1064 1063 ] final  -38.11 input   60.00 | X-H torsion
[ 6640 2347 2346 2344 ] final -109.77 input   60.00 | X-H torsion
[ 4452  380  379  378 ] final -135.93 input   60.00 | X-H torsion
[ 4500  391  390  389 ] final  157.86 input   60.00 | X-H torsion

> <Gold.Protein.ActiveResidues>
 THR8    THR9    PRO10   ILE11   TYR12   TYR13   VAL14   ASN15   ALA16   HIS19  
 HIS22   SER25   VAL29   MET46   THR47   GLY48   THR49   ASP50   GLU51   HIS52  
 GLY53   GLN54   LYS55   VAL56   ALA57   GLU58   THR71   PHE78   ILE93   THR95  
 THR96   HIS100  GLU101  VAL104  TRP108  TYR126  VAL128  SER129  ASP130  GLU131 
 SER132  LEU210  SER211  ILE212  SER213  ARG214  LYS215  ARG216  SER218  VAL219 
 MET220  ASN221  TRP222  SER223  ILE224  PRO225  VAL226  HIS232  CYS233  ILE234 
 TYR235  VAL236  TRP237  LEU238  ASP239  ALA240  LEU241  PHE242  ASN243  TYR244 
 TYR245  THR246  HIS275  VAL276  VAL277  GLY278  LYS279  ASP280  ILE281  LEU282 
 LYS283  PHE284  HIS285  ALA286  ILE287  TYR288  TRP289  PRO290  PHE292  LEU304 
 TRP309 

> <Gold.Protein.RotatedAtoms>
  -32.6332   -8.4720   -5.8936 H   0  0  0  0  0  0  0  0  0  0  0  0  # atno 4356 bound_to 100 
  -30.4011   -8.3770   -9.4083 H   0  0  0  0  0  0  0  0  0  0  0  0  # atno 4452 bound_to 380 
  -45.4641  -10.2975  -16.5619 H   0  0  0  0  0  0  0  0  0  0  0  0  # atno 4464 bound_to 112 
  -34.9573   -9.9347  -16.9425 H   0  0  0  0  0  0  0  0  0  0  0  0  # atno 4500 bound_to 391 
  -31.7227  -15.4176   -3.6652 H   0  0  0  0  0  0  0  0  0  0  0  0  # atno 4818 bound_to 65  
  -47.9375  -11.4119  -14.2488 H   0  0  0  0  0  0  0  0  0  0  0  0  # atno 4839 bound_to 441 
  -48.5663  -11.3760  -12.7157 H   0  0  0  0  0  0  0  0  0  0  0  0  # atno 4840 bound_to 441 
  -49.4721  -10.8389  -13.9958 H   0  0  0  0  0  0  0  0  0  0  0  0  # atno 4841 bound_to 441 
  -38.5555  -17.4165  -15.8717 H   0  0  0  0  0  0  0  0  0  0  0  0  # atno 4985 bound_to 758 
  -54.7471  -16.1255  -14.5995 H   0  0  0  0  0  0  0  0  0  0  0  0  # atno 5271 bound_to 1023
  -53.7968  -15.9890   -8.0519 H   0  0  0  0  0  0  0  0  0  0  0  0  # atno 5330 bound_to 1065
  -54.2174  -16.0990  -18.5431 H   0  0  0  0  0  0  0  0  0  0  0  0  # atno 6036 bound_to 1776
  -44.9876  -17.6826  -18.3468 H   0  0  0  0  0  0  0  0  0  0  0  0  # atno 6078 bound_to 1819
  -48.9414  -15.2531  -11.0388 H   0  0  0  0  0  0  0  0  0  0  0  0  # atno 6166 bound_to 1916
  -35.0214  -15.1633   -5.6987 H   0  0  0  0  0  0  0  0  0  0  0  0  # atno 6268 bound_to 1997
  -49.3207  -20.3725   -2.8845 H   0  0  0  0  0  0  0  0  0  0  0  0  # atno 6640 bound_to 2347
  -34.9404   -6.7982   -1.1212 H   0  0  0  0  0  0  0  0  0  0  0  0  # atno 8510 bound_to 202 
  -31.5527   -8.9122   -3.6092 H   0  0  0  0  0  0  0  0  0  0  0  0  # atno 8592 bound_to 72  
  -46.1256  -11.2280  -15.4023 LP  0  0  0  0  0  0  0  0  0  0  0  0  # atno 8618 bound_to 112 
  -44.8177  -11.7529  -16.2273 LP  0  0  0  0  0  0  0  0  0  0  0  0  # atno 8619 bound_to 112 
  -37.1927  -18.2293  -16.2326 LP  0  0  0  0  0  0  0  0  0  0  0  0  # atno 8637 bound_to 758 
  -38.0697  -17.5319  -17.4205 LP  0  0  0  0  0  0  0  0  0  0  0  0  # atno 8638 bound_to 758 
  -54.4418  -17.6645  -15.0312 LP  0  0  0  0  0  0  0  0  0  0  0  0  # atno 8642 bound_to 1023
  -54.2788  -17.2027  -13.4734 LP  0  0  0  0  0  0  0  0  0  0  0  0  # atno 8643 bound_to 1023
  -53.4565  -17.1926  -17.6086 LP  0  0  0  0  0  0  0  0  0  0  0  0  # atno 8662 bound_to 1776
  -55.0832  -17.2241  -17.7477 LP  0  0  0  0  0  0  0  0  0  0  0  0  # atno 8663 bound_to 1776
  -46.4722  -17.9734  -18.9464 LP  0  0  0  0  0  0  0  0  0  0  0  0  # atno 8672 bound_to 1819
  -45.4357  -17.0072  -19.7579 LP  0  0  0  0  0  0  0  0  0  0  0  0  # atno 8673 bound_to 1819
  -50.4675  -15.8174  -11.0126 LP  0  0  0  0  0  0  0  0  0  0  0  0  # atno 8684 bound_to 1916
  -49.8530  -15.1801  -12.3848 LP  0  0  0  0  0  0  0  0  0  0  0  0  # atno 8685 bound_to 1916
  -30.5295  -15.6214   -2.5776 LP  0  0  0  0  0  0  0  0  0  0  0  0  # atno 8712 bound_to 65  
  -31.0202  -16.8761   -3.5004 LP  0  0  0  0  0  0  0  0  0  0  0  0  # atno 8713 bound_to 65  
  -34.4016  -15.2748   -4.1982 LP  0  0  0  0  0  0  0  0  0  0  0  0  # atno 8724 bound_to 1997
  -35.7935  -16.0441   -4.5690 LP  0  0  0  0  0  0  0  0  0  0  0  0  # atno 8725 bound_to 1997
  -32.8595   -9.7058   -4.1662 LP  0  0  0  0  0  0  0  0  0  0  0  0  # atno 8747 bound_to 72  
  -32.1124   -8.5976   -5.1045 LP  0  0  0  0  0  0  0  0  0  0  0  0  # atno 8748 bound_to 72  
  -33.2390   -7.0796   -5.3085 LP  0  0  0  0  0  0  0  0  0  0  0  0  # atno 8749 bound_to 100 
  -32.0271   -7.0502   -6.4026 LP  0  0  0  0  0  0  0  0  0  0  0  0  # atno 8750 bound_to 100 
  -35.5772   -7.6056   -2.3824 LP  0  0  0  0  0  0  0  0  0  0  0  0  # atno 8754 bound_to 202 
  -35.3616   -5.9892   -2.4689 LP  0  0  0  0  0  0  0  0  0  0  0  0  # atno 8755 bound_to 202 
  -54.4462  -15.2951   -6.7310 LP  0  0  0  0  0  0  0  0  0  0  0  0  # atno 8775 bound_to 1065
  -54.5163  -14.5346   -8.1743 LP  0  0  0  0  0  0  0  0  0  0  0  0  # atno 8776 bound_to 1065
  -48.8958  -19.9400   -1.3744 LP  0  0  0  0  0  0  0  0  0  0  0  0  # atno 8779 bound_to 2347
  -49.4763  -21.4384   -1.6648 LP  0  0  0  0  0  0  0  0  0  0  0  0  # atno 8780 bound_to 2347
  -30.6641   -8.9141   -7.8950 LP  0  0  0  0  0  0  0  0  0  0  0  0  # atno 8787 bound_to 380 
  -31.2386   -9.7522   -9.1733 LP  0  0  0  0  0  0  0  0  0  0  0  0  # atno 8788 bound_to 380 

$$$$
