unknown|11k_best|sdf|8239|dock6
  -GOLD-   3 62123553D 1   1.00000     0.00000

 26 29  0  0  0  0  0  0  0  0  1 V2000
  -48.8001  -15.4385   -8.6913 O   0  0  0  0  0  0  0  0  0  0  0  0
  -48.2887  -14.9467   -7.6158 C   0  0  0  0  0  0  0  0  0  0  0  0
  -48.9047  -15.0996   -6.3927 C   0  0  0  0  0  0  0  0  0  0  0  0
  -48.3676  -14.4815   -5.2901 C   0  0  0  0  0  0  0  0  0  0  0  0
  -47.0674  -13.9940   -5.2881 C   0  0  0  0  0  0  0  0  0  0  0  0
  -46.4063  -13.9820   -6.5088 C   0  0  0  0  0  0  0  0  0  0  0  0
  -45.0464  -13.7199   -6.5554 C   0  0  0  0  0  0  0  0  0  0  0  0
  -44.4532  -13.7970   -7.8026 C   0  0  0  0  0  0  0  0  0  0  0  0
  -45.2726  -13.4995   -8.8812 C   0  0  0  0  0  0  0  0  0  0  0  0
  -44.5731  -13.4429  -10.2037 C   0  0  0  0  0  0  0  0  0  0  0  0
  -44.9127  -12.1743  -10.7954 N   0  0  0  0  0  0  0  0  0  0  0  0
  -46.2487  -11.7340  -10.3967 C   0  0  0  0  0  0  0  0  0  0  0  0
  -47.1271  -12.0359  -11.6099 C   0  0  0  0  0  0  0  0  0  0  0  0
  -46.9737  -13.4775  -11.8709 C   0  0  0  0  0  0  0  0  0  0  0  0
  -45.4963  -13.6936  -12.6434 C   0  0  1  0  0  0  0  0  0  0  0  0
  -46.0707  -13.1343  -13.9665 O   0  0  0  0  0  0  0  0  0  0  0  0
  -46.6298  -14.2763  -14.5152 C   0  0  0  0  0  0  0  0  0  0  0  0
  -45.5284  -15.0764  -15.1255 C   0  0  0  0  0  0  0  0  0  0  0  0
  -44.2219  -14.7812  -14.8065 C   0  0  0  0  0  0  0  0  0  0  0  0
  -43.2046  -15.7268  -14.8824 C   0  0  0  0  0  0  0  0  0  0  0  0
  -43.6605  -17.0278  -15.0645 C   0  0  0  0  0  0  0  0  0  0  0  0
  -44.7648  -17.2149  -15.7834 N   0  0  0  0  0  0  0  0  0  0  0  0
  -45.7935  -16.3671  -15.5574 C   0  0  0  0  0  0  0  0  0  0  0  0
  -44.8956  -12.1768  -12.2277 C   0  0  0  0  0  0  0  0  0  0  0  0
  -46.5373  -13.9470   -8.8497 N   0  0  0  0  0  0  0  0  0  0  0  0
  -47.0687  -14.3128   -7.6702 C   0  0  0  0  0  0  0  0  0  0  0  0
  1  2  1  0  0  0  0
  2  3  2  0  0  0  0
  3  4  1  0  0  0  0
  4  5  2  0  0  0  0
  5  6  1  0  0  0  0
  6  7  2  0  0  0  0
  7  8  1  0  0  0  0
  8  9  2  0  0  0  0
  9 10  1  0  0  0  0
 10 11  1  0  0  0  0
 11 12  1  0  0  0  0
 12 13  1  0  0  0  0
 13 14  1  0  0  0  0
 14 15  1  0  0  0  0
 15 16  1  0  0  0  0
 16 17  1  0  0  0  0
 17 18  1  0  0  0  0
 18 19  2  0  0  0  0
 19 20  1  0  0  0  0
 20 21  2  0  0  0  0
 21 22  1  0  0  0  0
 22 23  2  0  0  0  0
 15 24  1  0  0  0  0
  9 25  1  0  0  0  0
 25 26  2  0  0  0  0
 26  2  1  0  0  0  0
 26  6  1  0  0  0  0
 24 11  1  0  0  0  0
 23 18  1  0  0  0  0
M  END
>  <zinc_id>  (239) 
ZINC000067894847

>  <smiles>  (239) 
Oc1cccc2ccc(CN3CCC[C@@H](OCc4cccnc4)C3)nc12

>  <source_line>  (239) 
239

>  <source_data>  (239) 
ZINC000067894847

>  <source_name>  (239) 


>  <source_label>  (239) 
ZINC000067894847

>  <found_by>  (239) 
ZINC

> <Gold.Version>
5.8.1

> <Gold.Id.Protein>
ID|ID_protein|mol2

> <Gold.Goldscore.Fitness>
55.6780

> <Gold.Goldscore.Internal.Vdw>
-2.3449

> <Gold.Goldscore.Internal.Torsion>
-1.2411

> <Gold.Goldscore.External.Vdw>
33.9733

> <Gold.Goldscore.Internal.HBond>
0.0000

> <Gold.Goldscore.External.HBond>
13.5643

> <Gold.Goldscore.Internal.Correction>
1.0135

> <Gold.Goldscore.Hbonds>
donor molecule, donor type, donor heavy atom, donor atom, acceptor molecule, acceptor atom, score
      P1  H   112  4464       L1    16  0.55
      P1  H   441  4841       L1    16  1.00
      P1  H  1819  6078       L1    22  0.23
      P1  H  1916  6166       L1     1  1.00

> <Gold.Goldscore.Internal.Vdw.Weighted>
-2.3449

> <Gold.Goldscore.Internal.Torsion.Weighted>
-1.2411

> <Gold.Goldscore.External.Vdw.Weighted>
46.7132

> <Gold.Goldscore.Internal.HBond.Weighted>
0.0000

> <Gold.Goldscore.External.HBond.Weighted>
13.5643

> <Gold.Goldscore.Internal.Correction.Weighted>
1.0135

> <Gold.Protein.RotatedTorsions>
[ 4464  112  111  109 ] final   58.14 input   60.00 | X-H torsion
[ 4839  441  440  439 ] final  -88.08 input   60.00 | X-H torsion
[ 4985  758  757  756 ] final   97.54 input   60.00 | X-H torsion
[ 5271 1023 1022 1020 ] final  -30.25 input   60.00 | X-H torsion
[ 6036 1776 1775 1774 ] final -158.26 input   60.00 | X-H torsion
[ 6078 1819 1818 1817 ] final  -98.79 input   60.00 | X-H torsion
[ 6166 1916 1915 1913 ] final -168.33 input   60.00 | X-H torsion
[ 4818   65   64   63 ] final  -95.79 input   60.00 | X-H torsion
[ 6268 1997 1996 1994 ] final   12.38 input   60.00 | X-H torsion
[ 8592   72   71   70 ] final -140.08 input   60.00 | X-H torsion
[ 4356  100   99   97 ] final  -15.88 input   60.00 | X-H torsion
[ 8510  202  201  200 ] final  -79.04 input   60.00 | X-H torsion
[ 5330 1065 1064 1063 ] final  -70.47 input   60.00 | X-H torsion
[ 6640 2347 2346 2344 ] final  -65.62 input   60.00 | X-H torsion
[ 4452  380  379  378 ] final  -58.74 input   60.00 | X-H torsion
[ 4500  391  390  389 ] final  115.52 input   60.00 | X-H torsion

> <Gold.Protein.ActiveResidues>
 THR8    THR9    PRO10   ILE11   TYR12   TYR13   VAL14   ASN15   ALA16   HIS19  
 HIS22   SER25   VAL29   MET46   THR47   GLY48   THR49   ASP50   GLU51   HIS52  
 GLY53   GLN54   LYS55   VAL56   ALA57   GLU58   THR71   PHE78   ILE93   THR95  
 THR96   HIS100  GLU101  VAL104  TRP108  TYR126  VAL128  SER129  ASP130  GLU131 
 SER132  LEU210  SER211  ILE212  SER213  ARG214  LYS215  ARG216  SER218  VAL219 
 MET220  ASN221  TRP222  SER223  ILE224  PRO225  VAL226  HIS232  CYS233  ILE234 
 TYR235  VAL236  TRP237  LEU238  ASP239  ALA240  LEU241  PHE242  ASN243  TYR244 
 TYR245  THR246  HIS275  VAL276  VAL277  GLY278  LYS279  ASP280  ILE281  LEU282 
 LYS283  PHE284  HIS285  ALA286  ILE287  TYR288  TRP289  PRO290  PHE292  LEU304 
 TRP309 

> <Gold.Protein.RotatedAtoms>
  -33.3034   -7.2995   -5.2590 H   0  0  0  0  0  0  0  0  0  0  0  0  # atno 4356 bound_to 100 
  -31.0060   -9.3411   -9.6705 H   0  0  0  0  0  0  0  0  0  0  0  0  # atno 4452 bound_to 380 
  -45.6476  -11.7906  -15.4692 H   0  0  0  0  0  0  0  0  0  0  0  0  # atno 4464 bound_to 112 
  -35.3301  -10.4841  -16.8147 H   0  0  0  0  0  0  0  0  0  0  0  0  # atno 4500 bound_to 391 
  -30.5429  -16.6751   -2.9693 H   0  0  0  0  0  0  0  0  0  0  0  0  # atno 4818 bound_to 65  
  -49.0501  -11.1752  -12.7808 H   0  0  0  0  0  0  0  0  0  0  0  0  # atno 4839 bound_to 441 
  -49.1558  -10.9061  -14.4129 H   0  0  0  0  0  0  0  0  0  0  0  0  # atno 4840 bound_to 441 
  -47.7700  -11.5455  -13.7664 H   0  0  0  0  0  0  0  0  0  0  0  0  # atno 4841 bound_to 441 
  -37.6409  -18.0153  -15.6686 H   0  0  0  0  0  0  0  0  0  0  0  0  # atno 4985 bound_to 758 
  -54.2957  -17.1367  -13.4636 H   0  0  0  0  0  0  0  0  0  0  0  0  # atno 5271 bound_to 1023
  -53.8461  -16.1115   -7.5472 H   0  0  0  0  0  0  0  0  0  0  0  0  # atno 5330 bound_to 1065
  -53.9863  -17.5319  -17.3997 H   0  0  0  0  0  0  0  0  0  0  0  0  # atno 6036 bound_to 1776
  -45.1135  -17.7865  -18.2700 H   0  0  0  0  0  0  0  0  0  0  0  0  # atno 6078 bound_to 1819
  -49.4297  -15.5606  -10.6107 H   0  0  0  0  0  0  0  0  0  0  0  0  # atno 6166 bound_to 1916
  -34.3568  -14.9467   -5.0814 H   0  0  0  0  0  0  0  0  0  0  0  0  # atno 6268 bound_to 1997
  -49.5268  -21.0306   -2.7441 H   0  0  0  0  0  0  0  0  0  0  0  0  # atno 6640 bound_to 2347
  -35.0932   -7.3742   -1.2785 H   0  0  0  0  0  0  0  0  0  0  0  0  # atno 8510 bound_to 202 
  -32.2205   -8.6735   -5.1378 H   0  0  0  0  0  0  0  0  0  0  0  0  # atno 8592 bound_to 72  
  -44.7443  -11.1556  -16.6645 LP  0  0  0  0  0  0  0  0  0  0  0  0  # atno 8618 bound_to 112 
  -46.0142  -10.3216  -16.0656 LP  0  0  0  0  0  0  0  0  0  0  0  0  # atno 8619 bound_to 112 
  -37.4495  -17.9380  -17.2828 LP  0  0  0  0  0  0  0  0  0  0  0  0  # atno 8637 bound_to 758 
  -38.7340  -17.2201  -16.5747 LP  0  0  0  0  0  0  0  0  0  0  0  0  # atno 8638 bound_to 758 
  -54.7529  -16.1406  -14.6665 LP  0  0  0  0  0  0  0  0  0  0  0  0  # atno 8642 bound_to 1023
  -54.4222  -17.7083  -14.9819 LP  0  0  0  0  0  0  0  0  0  0  0  0  # atno 8643 bound_to 1023
  -55.1664  -16.7082  -18.1593 LP  0  0  0  0  0  0  0  0  0  0  0  0  # atno 8662 bound_to 1776
  -53.6060  -16.2655  -18.3483 LP  0  0  0  0  0  0  0  0  0  0  0  0  # atno 8663 bound_to 1776
  -46.5066  -17.8909  -19.1045 LP  0  0  0  0  0  0  0  0  0  0  0  0  # atno 8672 bound_to 1819
  -45.2745  -16.9850  -19.6771 LP  0  0  0  0  0  0  0  0  0  0  0  0  # atno 8673 bound_to 1819
  -50.6319  -15.6705  -11.7018 LP  0  0  0  0  0  0  0  0  0  0  0  0  # atno 8684 bound_to 1916
  -49.1969  -15.0173  -12.1268 LP  0  0  0  0  0  0  0  0  0  0  0  0  # atno 8685 bound_to 1916
  -31.7360  -16.1132   -3.9226 LP  0  0  0  0  0  0  0  0  0  0  0  0  # atno 8712 bound_to 65  
  -31.0018  -15.1180   -2.8562 LP  0  0  0  0  0  0  0  0  0  0  0  0  # atno 8713 bound_to 65  
  -35.1190  -15.8242   -3.9425 LP  0  0  0  0  0  0  0  0  0  0  0  0  # atno 8724 bound_to 1997
  -35.7452  -15.7128   -5.4465 LP  0  0  0  0  0  0  0  0  0  0  0  0  # atno 8725 bound_to 1997
  -31.4940   -8.8186   -3.6889 LP  0  0  0  0  0  0  0  0  0  0  0  0  # atno 8747 bound_to 72  
  -32.8054   -9.7252   -4.0423 LP  0  0  0  0  0  0  0  0  0  0  0  0  # atno 8748 bound_to 72  
  -32.1327   -6.8655   -6.3026 LP  0  0  0  0  0  0  0  0  0  0  0  0  # atno 8749 bound_to 100 
  -32.4585   -8.4451   -6.0475 LP  0  0  0  0  0  0  0  0  0  0  0  0  # atno 8750 bound_to 100 
  -35.6669   -7.1403   -2.7832 LP  0  0  0  0  0  0  0  0  0  0  0  0  # atno 8754 bound_to 202 
  -35.1180   -5.8745   -1.9096 LP  0  0  0  0  0  0  0  0  0  0  0  0  # atno 8755 bound_to 202 
  -54.6399  -14.8412   -6.9113 LP  0  0  0  0  0  0  0  0  0  0  0  0  # atno 8775 bound_to 1065
  -54.2729  -14.8651   -8.5023 LP  0  0  0  0  0  0  0  0  0  0  0  0  # atno 8776 bound_to 1065
  -48.9293  -19.6920   -2.0375 LP  0  0  0  0  0  0  0  0  0  0  0  0  # atno 8779 bound_to 2347
  -49.2352  -21.0236   -1.1431 LP  0  0  0  0  0  0  0  0  0  0  0  0  # atno 8780 bound_to 2347
  -30.2729   -8.2133   -8.7547 LP  0  0  0  0  0  0  0  0  0  0  0  0  # atno 8787 bound_to 380 
  -31.0206   -9.4822   -8.0495 LP  0  0  0  0  0  0  0  0  0  0  0  0  # atno 8788 bound_to 380 

$$$$
