unknown|11k_best|sdf|8238|dock5
  -GOLD-   3 62123543D 1   1.00000     0.00000

 31 33  0  0  0  0  0  0  0  0  1 V2000
  -47.7563  -18.3235  -16.9811 C   0  0  0  0  0  0  0  0  0  0  0  0
  -47.6435  -17.1499  -16.3983 C   0  0  0  0  0  0  0  0  0  0  0  0
  -48.6951  -16.2572  -16.4094 C   0  0  0  0  0  0  0  0  0  0  0  0
  -48.5999  -15.0014  -15.8256 C   0  0  0  0  0  0  0  0  0  0  0  0
  -47.3824  -14.5891  -15.3289 C   0  0  0  0  0  0  0  0  0  0  0  0
  -47.1763  -13.1699  -15.0246 C   0  0  0  0  0  0  0  0  0  0  0  0
  -47.7695  -12.3198  -15.7558 O   0  0  0  0  0  0  0  0  0  0  0  0
  -46.9922  -12.8287  -13.6602 N   0  0  0  0  0  0  0  0  0  0  0  0
  -46.9412  -13.8997  -12.7024 C   0  0  0  0  0  0  0  0  0  0  0  0
  -47.6174  -13.5599  -11.4364 C   0  0  0  0  0  0  0  0  0  0  0  0
  -48.2514  -12.4843  -11.2422 O   0  0  0  0  0  0  0  0  0  0  0  0
  -47.2213  -14.2602  -10.2527 N   0  0  0  0  0  0  0  0  0  0  0  0
  -47.9041  -13.6084   -8.9546 C   0  0  2  0  0  0  0  0  0  0  0  0
  -46.6545  -12.4996   -8.8083 C   0  0  0  0  0  0  0  0  0  0  0  0
  -47.1375  -14.6759   -7.9635 C   0  0  0  0  0  0  0  0  0  0  0  0
  -45.7922  -14.8110   -8.2914 C   0  0  0  0  0  0  0  0  0  0  0  0
  -44.9223  -15.3051   -7.3295 C   0  0  0  0  0  0  0  0  0  0  0  0
  -43.6937  -15.6695   -7.7863 F   0  0  0  0  0  0  0  0  0  0  0  0
  -45.0904  -14.7785   -6.0546 C   0  0  0  0  0  0  0  0  0  0  0  0
  -46.3598  -14.3356   -5.7025 C   0  0  0  0  0  0  0  0  0  0  0  0
  -47.3613  -14.2351   -6.6616 C   0  0  0  0  0  0  0  0  0  0  0  0
  -48.7181  -14.1562   -6.2305 N   0  0  0  0  0  0  0  0  0  0  0  0
  -49.7205  -14.6030   -7.1928 C   0  0  0  0  0  0  0  0  0  0  0  0
  -50.3872  -15.8580   -6.7196 C   0  0  0  0  0  0  0  0  0  0  0  0
  -50.8034  -15.8590   -5.3677 N   0  0  0  0  0  0  0  0  0  0  0  0
  -52.1962  -15.6870   -5.1265 C   0  0  0  0  0  0  0  0  0  0  0  0
  -49.9183  -15.3089   -4.4102 C   0  0  0  0  0  0  0  0  0  0  0  0
  -49.1218  -14.1265   -4.8494 C   0  0  0  0  0  0  0  0  0  0  0  0
  -46.3848  -15.5156  -15.1589 C   0  0  0  0  0  0  0  0  0  0  0  0
  -46.5008  -16.7663  -15.7091 C   0  0  0  0  0  0  0  0  0  0  0  0
  -45.5481  -17.8229  -15.2920 C   0  0  0  0  0  0  0  0  0  0  0  0
  1  2  1  0  0  0  0
  2  3  2  0  0  0  0
  3  4  1  0  0  0  0
  4  5  2  0  0  0  0
  5  6  1  0  0  0  0
  6  7  2  0  0  0  0
  6  8  1  0  0  0  0
  8  9  1  0  0  0  0
  9 10  1  0  0  0  0
 10 11  2  0  0  0  0
 10 12  1  0  0  0  0
 13 12  1  0  0  0  0
 13 14  1  0  0  0  0
 13 15  1  0  0  0  0
 15 16  2  0  0  0  0
 16 17  1  0  0  0  0
 17 18  1  0  0  0  0
 17 19  2  0  0  0  0
 19 20  1  0  0  0  0
 20 21  2  0  0  0  0
 21 22  1  0  0  0  0
 22 23  1  0  0  0  0
 23 24  1  0  0  0  0
 24 25  1  0  0  0  0
 25 26  1  0  0  0  0
 25 27  1  0  0  0  0
 27 28  1  0  0  0  0
  5 29  1  0  0  0  0
 29 30  2  0  0  0  0
 30 31  1  0  0  0  0
 30  2  1  0  0  0  0
 21 15  1  0  0  0  0
 28 22  1  0  0  0  0
M  END
>  <zinc_id>  (238) 
ZINC000058180484

>  <smiles>  (238) 
Cc1ccc(C(=O)NCC(=O)N[C@H](C)c2cc(F)ccc2N2CCN(C)CC2)cc1C

>  <source_line>  (238) 
238

>  <source_data>  (238) 
ZINC000058180484

>  <source_name>  (238) 


>  <source_label>  (238) 
ZINC000058180484

>  <found_by>  (238) 
ZINC

> <Gold.Version>
5.8.1

> <Gold.Id.Protein>
ID|ID_protein|mol2

> <Gold.Goldscore.Fitness>
57.1881

> <Gold.Goldscore.Internal.Vdw>
-4.4515

> <Gold.Goldscore.Internal.Torsion>
-11.3551

> <Gold.Goldscore.External.Vdw>
41.2667

> <Gold.Goldscore.Internal.HBond>
0.0000

> <Gold.Goldscore.External.HBond>
5.2219

> <Gold.Goldscore.Internal.Correction>
-11.0310

> <Gold.Goldscore.Hbonds>
donor molecule, donor type, donor heavy atom, donor atom, acceptor molecule, acceptor atom, score
      P1  H   435  4829       L1     7  0.92
      P1  H   441  4841       L1     8  0.32
      P1  H  1916  6166       L1    12  0.04

> <Gold.Goldscore.Internal.Vdw.Weighted>
-4.4515

> <Gold.Goldscore.Internal.Torsion.Weighted>
-11.3551

> <Gold.Goldscore.External.Vdw.Weighted>
56.7417

> <Gold.Goldscore.Internal.HBond.Weighted>
0.0000

> <Gold.Goldscore.External.HBond.Weighted>
5.2219

> <Gold.Goldscore.Internal.Correction.Weighted>
-11.0310

> <Gold.Protein.RotatedTorsions>
[ 4464  112  111  109 ] final  -21.32 input   60.00 | X-H torsion
[ 4839  441  440  439 ] final  -74.30 input   60.00 | X-H torsion
[ 4985  758  757  756 ] final  111.30 input   60.00 | X-H torsion
[ 5271 1023 1022 1020 ] final   16.05 input   60.00 | X-H torsion
[ 6036 1776 1775 1774 ] final  151.20 input   60.00 | X-H torsion
[ 6078 1819 1818 1817 ] final -110.49 input   60.00 | X-H torsion
[ 6166 1916 1915 1913 ] final -132.77 input   60.00 | X-H torsion
[ 4818   65   64   63 ] final  175.27 input   60.00 | X-H torsion
[ 6268 1997 1996 1994 ] final   21.96 input   60.00 | X-H torsion
[ 8592   72   71   70 ] final   24.12 input   60.00 | X-H torsion
[ 4356  100   99   97 ] final -107.00 input   60.00 | X-H torsion
[ 8510  202  201  200 ] final  146.98 input   60.00 | X-H torsion
[ 5330 1065 1064 1063 ] final  -18.62 input   60.00 | X-H torsion
[ 6640 2347 2346 2344 ] final -141.17 input   60.00 | X-H torsion
[ 4452  380  379  378 ] final  140.53 input   60.00 | X-H torsion
[ 4500  391  390  389 ] final   66.42 input   60.00 | X-H torsion

> <Gold.Protein.ActiveResidues>
 THR8    THR9    PRO10   ILE11   TYR12   TYR13   VAL14   ASN15   ALA16   HIS19  
 HIS22   SER25   VAL29   MET46   THR47   GLY48   THR49   ASP50   GLU51   HIS52  
 GLY53   GLN54   LYS55   VAL56   ALA57   GLU58   THR71   PHE78   ILE93   THR95  
 THR96   HIS100  GLU101  VAL104  TRP108  TYR126  VAL128  SER129  ASP130  GLU131 
 SER132  LEU210  SER211  ILE212  SER213  ARG214  LYS215  ARG216  SER218  VAL219 
 MET220  ASN221  TRP222  SER223  ILE224  PRO225  VAL226  HIS232  CYS233  ILE234 
 TYR235  VAL236  TRP237  LEU238  ASP239  ALA240  LEU241  PHE242  ASN243  TYR244 
 TYR245  THR246  HIS275  VAL276  VAL277  GLY278  LYS279  ASP280  ILE281  LEU282 
 LYS283  PHE284  HIS285  ALA286  ILE287  TYR288  TRP289  PRO290  PHE292  LEU304 
 TRP309 

> <Gold.Protein.RotatedAtoms>
  -32.4344   -6.6352   -6.0275 H   0  0  0  0  0  0  0  0  0  0  0  0  # atno 4356 bound_to 100 
  -30.3974   -8.4647   -8.1641 H   0  0  0  0  0  0  0  0  0  0  0  0  # atno 4452 bound_to 380 
  -44.7853  -11.6884  -16.2927 H   0  0  0  0  0  0  0  0  0  0  0  0  # atno 4464 bound_to 112 
  -35.2152  -11.1352  -16.4048 H   0  0  0  0  0  0  0  0  0  0  0  0  # atno 4500 bound_to 391 
  -31.5019  -16.5536   -3.8558 H   0  0  0  0  0  0  0  0  0  0  0  0  # atno 4818 bound_to 65  
  -49.2295  -11.0883  -12.8949 H   0  0  0  0  0  0  0  0  0  0  0  0  # atno 4839 bound_to 441 
  -48.9654  -10.9658  -14.5267 H   0  0  0  0  0  0  0  0  0  0  0  0  # atno 4840 bound_to 441 
  -47.7810  -11.5728  -13.5387 H   0  0  0  0  0  0  0  0  0  0  0  0  # atno 4841 bound_to 441 
  -37.8246  -17.9091  -15.5961 H   0  0  0  0  0  0  0  0  0  0  0  0  # atno 4985 bound_to 758 
  -54.2191  -17.7430  -13.8741 H   0  0  0  0  0  0  0  0  0  0  0  0  # atno 5271 bound_to 1023
  -53.8364  -15.8026   -8.3052 H   0  0  0  0  0  0  0  0  0  0  0  0  # atno 5330 bound_to 1065
  -54.7740  -17.4749  -17.5236 H   0  0  0  0  0  0  0  0  0  0  0  0  # atno 6036 bound_to 1776
  -45.2674  -17.8870  -18.2190 H   0  0  0  0  0  0  0  0  0  0  0  0  # atno 6078 bound_to 1819
  -49.0113  -15.3161  -10.9142 H   0  0  0  0  0  0  0  0  0  0  0  0  # atno 6166 bound_to 1916
  -34.4266  -14.9437   -5.2214 H   0  0  0  0  0  0  0  0  0  0  0  0  # atno 6268 bound_to 1997
  -49.1340  -19.9559   -2.6649 H   0  0  0  0  0  0  0  0  0  0  0  0  # atno 6640 bound_to 2347
  -35.6544   -6.9198   -2.8434 H   0  0  0  0  0  0  0  0  0  0  0  0  # atno 8510 bound_to 202 
  -32.3309   -9.5981   -3.5338 H   0  0  0  0  0  0  0  0  0  0  0  0  # atno 8592 bound_to 72  
  -45.5436  -10.2658  -16.5151 LP  0  0  0  0  0  0  0  0  0  0  0  0  # atno 8618 bound_to 112 
  -46.0834  -11.3143  -15.3856 LP  0  0  0  0  0  0  0  0  0  0  0  0  # atno 8619 bound_to 112 
  -37.3135  -18.0417  -17.1354 LP  0  0  0  0  0  0  0  0  0  0  0  0  # atno 8637 bound_to 758 
  -38.6851  -17.2234  -16.7951 LP  0  0  0  0  0  0  0  0  0  0  0  0  # atno 8638 bound_to 758 
  -54.6170  -16.1664  -13.9381 LP  0  0  0  0  0  0  0  0  0  0  0  0  # atno 8642 bound_to 1023
  -54.6352  -17.0719  -15.2970 LP  0  0  0  0  0  0  0  0  0  0  0  0  # atno 8643 bound_to 1023
  -54.6644  -16.1889  -18.5148 LP  0  0  0  0  0  0  0  0  0  0  0  0  # atno 8662 bound_to 1776
  -53.3148  -16.8423  -17.8682 LP  0  0  0  0  0  0  0  0  0  0  0  0  # atno 8663 bound_to 1776
  -46.5076  -17.7902  -19.2681 LP  0  0  0  0  0  0  0  0  0  0  0  0  # atno 8672 bound_to 1819
  -45.1185  -16.9846  -19.5649 LP  0  0  0  0  0  0  0  0  0  0  0  0  # atno 8673 bound_to 1819
  -50.5455  -15.8051  -11.1486 LP  0  0  0  0  0  0  0  0  0  0  0  0  # atno 8684 bound_to 1916
  -49.7047  -15.1289  -12.3744 LP  0  0  0  0  0  0  0  0  0  0  0  0  # atno 8685 bound_to 1916
  -31.3710  -15.0712   -3.1974 LP  0  0  0  0  0  0  0  0  0  0  0  0  # atno 8712 bound_to 65  
  -30.4011  -16.2824   -2.6885 LP  0  0  0  0  0  0  0  0  0  0  0  0  # atno 8713 bound_to 65  
  -34.9846  -15.7454   -3.9198 LP  0  0  0  0  0  0  0  0  0  0  0  0  # atno 8724 bound_to 1997
  -35.8095  -15.7947   -5.3282 LP  0  0  0  0  0  0  0  0  0  0  0  0  # atno 8725 bound_to 1997
  -32.7365   -9.1478   -5.0440 LP  0  0  0  0  0  0  0  0  0  0  0  0  # atno 8747 bound_to 72  
  -31.4517   -8.4649   -4.3025 LP  0  0  0  0  0  0  0  0  0  0  0  0  # atno 8748 bound_to 72  
  -32.1528   -8.2114   -6.3179 LP  0  0  0  0  0  0  0  0  0  0  0  0  # atno 8749 bound_to 100 
  -33.3136   -7.7681   -5.2583 LP  0  0  0  0  0  0  0  0  0  0  0  0  # atno 8750 bound_to 100 
  -35.0433   -5.9350   -1.7012 LP  0  0  0  0  0  0  0  0  0  0  0  0  # atno 8754 bound_to 202 
  -35.1764   -7.5373   -1.4157 LP  0  0  0  0  0  0  0  0  0  0  0  0  # atno 8755 bound_to 202 
  -54.2954  -15.5749   -6.7607 LP  0  0  0  0  0  0  0  0  0  0  0  0  # atno 8775 bound_to 1065
  -54.6273  -14.4425   -7.8895 LP  0  0  0  0  0  0  0  0  0  0  0  0  # atno 8776 bound_to 1065
  -48.9910  -20.3554   -1.0939 LP  0  0  0  0  0  0  0  0  0  0  0  0  # atno 8779 bound_to 2347
  -49.5692  -21.4426   -2.1665 LP  0  0  0  0  0  0  0  0  0  0  0  0  # atno 8780 bound_to 2347
  -31.2369   -9.7937   -8.5850 LP  0  0  0  0  0  0  0  0  0  0  0  0  # atno 8787 bound_to 380 
  -30.6695   -8.7843   -9.7363 LP  0  0  0  0  0  0  0  0  0  0  0  0  # atno 8788 bound_to 380 

$$$$
