unknown|11k_best|sdf|8251|dock7
  -GOLD-   3 721 0 73D 1   1.00000     0.00000

 32 36  0  0  0  0  0  0  0  0  1 V2000
  -50.3133  -15.0409  -16.4979 C   0  0  0  0  0  0  0  0  0  0  0  0
  -49.4730  -15.2473  -16.2105 O   0  0  0  0  0  0  0  0  0  0  0  0
  -48.6108  -16.3345  -16.3431 C   0  0  0  0  0  0  0  0  0  0  0  0
  -48.9398  -17.3607  -17.2207 C   0  0  0  0  0  0  0  0  0  0  0  0
  -47.9664  -18.2671  -17.5615 C   0  0  0  0  0  0  0  0  0  0  0  0
  -46.8558  -18.3434  -16.7341 C   0  0  0  0  0  0  0  0  0  0  0  0
  -45.8931  -19.2228  -17.1240 F   0  0  0  0  0  0  0  0  0  0  0  0
  -46.6730  -17.4591  -15.6819 C   0  0  0  0  0  0  0  0  0  0  0  0
  -47.3358  -16.2427  -15.7967 C   0  0  0  0  0  0  0  0  0  0  0  0
  -47.0250  -15.2328  -14.7760 C   0  0  0  0  0  0  0  0  0  0  0  0
  -45.9279  -14.4262  -15.0535 C   0  0  0  0  0  0  0  0  0  0  0  0
  -45.3121  -13.8139  -13.9679 C   0  0  0  0  0  0  0  0  0  0  0  0
  -45.8506  -13.8762  -12.6866 C   0  0  0  0  0  0  0  0  0  0  0  0
  -45.9738  -12.8240  -11.8394 N   0  0  0  0  0  0  0  0  0  0  0  0
  -46.9489  -12.9828  -10.9710 C   0  0  0  0  0  0  0  0  0  0  0  0
  -48.0102  -11.8454  -10.5454 C   0  0  2  0  0  0  0  0  0  0  0  0
  -47.1414  -11.2951   -9.2631 C   0  0  0  0  0  0  0  0  0  0  0  0
  -48.0202  -10.2719   -8.5912 C   0  0  0  0  0  0  0  0  0  0  0  0
  -49.0802  -11.0738   -7.8421 C   0  0  0  0  0  0  0  0  0  0  0  0
  -49.6998  -11.9147   -8.8674 N   0  0  0  0  0  0  0  0  0  0  0  0
  -50.7333  -11.2478   -9.6061 C   0  0  0  0  0  0  0  0  0  0  0  0
  -50.5177  -11.0772  -10.8442 O   0  0  0  0  0  0  0  0  0  0  0  0
  -52.1383  -11.2369   -9.0962 C   0  0  0  0  0  0  0  0  0  0  0  0
  -52.6991   -9.8734   -9.1117 C   0  0  0  0  0  0  0  0  0  0  0  0
  -52.7563   -9.0503  -10.2264 C   0  0  0  0  0  0  0  0  0  0  0  0
  -53.6884   -8.0732   -9.8994 C   0  0  0  0  0  0  0  0  0  0  0  0
  -54.0628   -8.2879   -8.5790 C   0  0  0  0  0  0  0  0  0  0  0  0
  -53.2841   -9.2446   -8.1342 O   0  0  0  0  0  0  0  0  0  0  0  0
  -48.8672  -12.8751   -9.5932 C   0  0  0  0  0  0  0  0  0  0  0  0
  -47.5699  -14.1173  -11.3918 N   0  0  0  0  0  0  0  0  0  0  0  0
  -46.9539  -14.6197  -12.4537 N   0  0  0  0  0  0  0  0  0  0  0  0
  -47.2856  -15.4865  -13.4434 C   0  0  0  0  0  0  0  0  0  0  0  0
  1  2  1  0  0  0  0
  2  3  1  0  0  0  0
  3  4  2  0  0  0  0
  4  5  1  0  0  0  0
  5  6  2  0  0  0  0
  6  7  1  0  0  0  0
  6  8  1  0  0  0  0
  8  9  2  0  0  0  0
  9 10  1  0  0  0  0
 10 11  1  0  0  0  0
 11 12  2  0  0  0  0
 12 13  1  0  0  0  0
 13 14  2  0  0  0  0
 14 15  1  0  0  0  0
 16 15  1  0  0  0  0
 16 17  1  0  0  0  0
 17 18  1  0  0  0  0
 18 19  1  0  0  0  0
 19 20  1  0  0  0  0
 20 21  1  0  0  0  0
 21 22  2  0  0  0  0
 21 23  1  0  0  0  0
 23 24  1  0  0  0  0
 24 25  2  0  0  0  0
 25 26  1  0  0  0  0
 26 27  2  0  0  0  0
 27 28  1  0  0  0  0
 20 29  1  0  0  0  0
 15 30  2  0  0  0  0
 30 31  1  0  0  0  0
 31 32  1  0  0  0  0
  9  3  1  0  0  0  0
 32 10  2  0  0  0  0
 31 13  1  0  0  0  0
 29 16  1  0  0  0  0
 28 24  1  0  0  0  0
M  END
>  <zinc_id>  (251) 
ZINC000306123134

>  <smiles>  (251) 
COc1ccc(F)cc1-c1ccc2nc([C@@H]3CCCN(C(=O)Cc4ccco4)C3)nn2c1

>  <source_line>  (251) 
251

>  <source_data>  (251) 
ZINC000306123134

>  <source_name>  (251) 


>  <source_label>  (251) 
ZINC000306123134

>  <found_by>  (251) 
ZINC

> <Gold.Version>
5.8.1

> <Gold.Id.Protein>
ID|ID_protein|mol2

> <Gold.Goldscore.Fitness>
55.6960

> <Gold.Goldscore.Internal.Vdw>
0.9884

> <Gold.Goldscore.Internal.Torsion>
-22.5795

> <Gold.Goldscore.External.Vdw>
40.5810

> <Gold.Goldscore.Internal.HBond>
0.0000

> <Gold.Goldscore.External.HBond>
5.4220

> <Gold.Goldscore.Internal.Correction>
-16.0662

> <Gold.Goldscore.Hbonds>
donor molecule, donor type, donor heavy atom, donor atom, acceptor molecule, acceptor atom, score
      P1  H   426  4822       L1     2  0.68
      P1  H   441  4839       L1    22  0.68

> <Gold.Goldscore.Internal.Vdw.Weighted>
0.9884

> <Gold.Goldscore.Internal.Torsion.Weighted>
-22.5795

> <Gold.Goldscore.External.Vdw.Weighted>
55.7989

> <Gold.Goldscore.Internal.HBond.Weighted>
0.0000

> <Gold.Goldscore.External.HBond.Weighted>
5.4220

> <Gold.Goldscore.Internal.Correction.Weighted>
-16.0662

> <Gold.Protein.RotatedTorsions>
[ 4464  112  111  109 ] final   -3.25 input   60.00 | X-H torsion
[ 4839  441  440  439 ] final  -79.68 input   60.00 | X-H torsion
[ 4985  758  757  756 ] final  -35.74 input   60.00 | X-H torsion
[ 5271 1023 1022 1020 ] final  150.63 input   60.00 | X-H torsion
[ 6036 1776 1775 1774 ] final  -85.47 input   60.00 | X-H torsion
[ 6078 1819 1818 1817 ] final   94.38 input   60.00 | X-H torsion
[ 6166 1916 1915 1913 ] final -161.40 input   60.00 | X-H torsion
[ 4818   65   64   63 ] final   85.28 input   60.00 | X-H torsion
[ 6268 1997 1996 1994 ] final  -81.36 input   60.00 | X-H torsion
[ 8592   72   71   70 ] final  -65.19 input   60.00 | X-H torsion
[ 4356  100   99   97 ] final  -83.69 input   60.00 | X-H torsion
[ 8510  202  201  200 ] final    4.42 input   60.00 | X-H torsion
[ 5330 1065 1064 1063 ] final   75.69 input   60.00 | X-H torsion
[ 6640 2347 2346 2344 ] final   39.42 input   60.00 | X-H torsion
[ 4452  380  379  378 ] final -152.32 input   60.00 | X-H torsion
[ 4500  391  390  389 ] final  143.41 input   60.00 | X-H torsion

> <Gold.Protein.ActiveResidues>
 THR8    THR9    PRO10   ILE11   TYR12   TYR13   VAL14   ASN15   ALA16   HIS19  
 HIS22   SER25   VAL29   MET46   THR47   GLY48   THR49   ASP50   GLU51   HIS52  
 GLY53   GLN54   LYS55   VAL56   ALA57   GLU58   THR71   PHE78   ILE93   THR95  
 THR96   HIS100  GLU101  VAL104  TRP108  TYR126  VAL128  SER129  ASP130  GLU131 
 SER132  LEU210  SER211  ILE212  SER213  ARG214  LYS215  ARG216  SER218  VAL219 
 MET220  ASN221  TRP222  SER223  ILE224  PRO225  VAL226  HIS232  CYS233  ILE234 
 TYR235  VAL236  TRP237  LEU238  ASP239  ALA240  LEU241  PHE242  ASN243  TYR244 
 TYR245  THR246  HIS275  VAL276  VAL277  GLY278  LYS279  ASP280  ILE281  LEU282 
 LYS283  PHE284  HIS285  ALA286  ILE287  TYR288  TRP289  PRO290  PHE292  LEU304 
 TRP309 

> <Gold.Protein.RotatedAtoms>
  -32.7139   -6.6081   -5.7743 H   0  0  0  0  0  0  0  0  0  0  0  0  # atno 4356 bound_to 100 
  -30.3229   -8.2673   -9.1779 H   0  0  0  0  0  0  0  0  0  0  0  0  # atno 4452 bound_to 380 
  -44.9150  -11.8453  -16.0806 H   0  0  0  0  0  0  0  0  0  0  0  0  # atno 4464 bound_to 112 
  -35.1255  -10.0990  -16.9306 H   0  0  0  0  0  0  0  0  0  0  0  0  # atno 4500 bound_to 391 
  -31.6474  -15.2758   -3.5417 H   0  0  0  0  0  0  0  0  0  0  0  0  # atno 4818 bound_to 65  
  -49.1628  -11.1217  -12.8447 H   0  0  0  0  0  0  0  0  0  0  0  0  # atno 4839 bound_to 441 
  -49.0426  -10.9406  -14.4879 H   0  0  0  0  0  0  0  0  0  0  0  0  # atno 4840 bound_to 441 
  -47.7706  -11.5645  -13.6276 H   0  0  0  0  0  0  0  0  0  0  0  0  # atno 4841 bound_to 441 
  -37.6090  -17.8237  -17.3766 H   0  0  0  0  0  0  0  0  0  0  0  0  # atno 4985 bound_to 758 
  -54.6898  -16.8413  -15.2701 H   0  0  0  0  0  0  0  0  0  0  0  0  # atno 5271 bound_to 1023
  -54.4744  -14.5883   -8.2501 H   0  0  0  0  0  0  0  0  0  0  0  0  # atno 5330 bound_to 1065
  -53.3189  -16.8007  -17.9041 H   0  0  0  0  0  0  0  0  0  0  0  0  # atno 6036 bound_to 1776
  -46.2935  -17.4498  -19.6679 H   0  0  0  0  0  0  0  0  0  0  0  0  # atno 6078 bound_to 1819
  -49.3328  -15.5143  -10.6464 H   0  0  0  0  0  0  0  0  0  0  0  0  # atno 6166 bound_to 1916
  -34.7595  -15.5939   -3.9473 H   0  0  0  0  0  0  0  0  0  0  0  0  # atno 6268 bound_to 1997
  -49.3220  -21.2049   -1.2827 H   0  0  0  0  0  0  0  0  0  0  0  0  # atno 6640 bound_to 2347
  -34.9556   -6.1426   -1.4108 H   0  0  0  0  0  0  0  0  0  0  0  0  # atno 8510 bound_to 202 
  -32.9109   -9.4704   -4.7082 H   0  0  0  0  0  0  0  0  0  0  0  0  # atno 8592 bound_to 72  
  -45.3068  -10.3745  -16.6560 LP  0  0  0  0  0  0  0  0  0  0  0  0  # atno 8618 bound_to 112 
  -46.1896  -11.0476  -15.4584 LP  0  0  0  0  0  0  0  0  0  0  0  0  # atno 8619 bound_to 112 
  -38.7380  -17.2444  -16.3579 LP  0  0  0  0  0  0  0  0  0  0  0  0  # atno 8637 bound_to 758 
  -37.4776  -18.1067  -15.7795 LP  0  0  0  0  0  0  0  0  0  0  0  0  # atno 8638 bound_to 758 
  -54.2265  -17.8550  -14.0844 LP  0  0  0  0  0  0  0  0  0  0  0  0  # atno 8642 bound_to 1023
  -54.5518  -16.2913  -13.7448 LP  0  0  0  0  0  0  0  0  0  0  0  0  # atno 8643 bound_to 1023
  -54.7316  -17.4987  -17.4977 LP  0  0  0  0  0  0  0  0  0  0  0  0  # atno 8662 bound_to 1776
  -54.7129  -16.2113  -18.5021 LP  0  0  0  0  0  0  0  0  0  0  0  0  # atno 8663 bound_to 1776
  -44.7992  -17.1206  -19.1140 LP  0  0  0  0  0  0  0  0  0  0  0  0  # atno 8672 bound_to 1819
  -45.7936  -18.0944  -18.2598 LP  0  0  0  0  0  0  0  0  0  0  0  0  # atno 8673 bound_to 1819
  -50.6416  -15.7065  -11.5941 LP  0  0  0  0  0  0  0  0  0  0  0  0  # atno 8684 bound_to 1916
  -49.2848  -15.0279  -12.1986 LP  0  0  0  0  0  0  0  0  0  0  0  0  # atno 8685 bound_to 1916
  -30.4547  -15.8111   -2.5726 LP  0  0  0  0  0  0  0  0  0  0  0  0  # atno 8712 bound_to 65  
  -31.1708  -16.8292   -3.6297 LP  0  0  0  0  0  0  0  0  0  0  0  0  # atno 8713 bound_to 65  
  -35.8715  -15.9158   -5.0909 LP  0  0  0  0  0  0  0  0  0  0  0  0  # atno 8724 bound_to 1997
  -34.5873  -14.9695   -5.4401 LP  0  0  0  0  0  0  0  0  0  0  0  0  # atno 8725 bound_to 1997
  -31.6716   -8.4165   -4.7478 LP  0  0  0  0  0  0  0  0  0  0  0  0  # atno 8747 bound_to 72  
  -31.9325   -9.3248   -3.4161 LP  0  0  0  0  0  0  0  0  0  0  0  0  # atno 8748 bound_to 72  
  -31.9905   -7.8962   -6.4567 LP  0  0  0  0  0  0  0  0  0  0  0  0  # atno 8749 bound_to 100 
  -33.1944   -8.1106   -5.3745 LP  0  0  0  0  0  0  0  0  0  0  0  0  # atno 8750 bound_to 100 
  -35.3218   -7.6990   -1.7137 LP  0  0  0  0  0  0  0  0  0  0  0  0  # atno 8754 bound_to 202 
  -35.6017   -6.5561   -2.8460 LP  0  0  0  0  0  0  0  0  0  0  0  0  # atno 8755 bound_to 202 
  -53.7898  -16.0362   -7.9619 LP  0  0  0  0  0  0  0  0  0  0  0  0  # atno 8775 bound_to 1065
  -54.4902  -15.2041   -6.7439 LP  0  0  0  0  0  0  0  0  0  0  0  0  # atno 8776 bound_to 1065
  -49.4753  -20.8192   -2.8562 LP  0  0  0  0  0  0  0  0  0  0  0  0  # atno 8779 bound_to 2347
  -48.8954  -19.7208   -1.7961 LP  0  0  0  0  0  0  0  0  0  0  0  0  # atno 8780 bound_to 2347
  -30.8049   -9.1431   -7.8939 LP  0  0  0  0  0  0  0  0  0  0  0  0  # atno 8787 bound_to 380 
  -31.1765   -9.6337   -9.4064 LP  0  0  0  0  0  0  0  0  0  0  0  0  # atno 8788 bound_to 380 

$$$$
