unknown|11k_best|sdf|8247|dock6
  -GOLD-   3 721 0 33D 1   1.00000     0.00000

 26 28  0  0  0  0  0  0  0  0  1 V2000
  -41.8535  -16.5013  -14.3804 C   0  0  0  0  0  0  0  0  0  0  0  0
  -43.1612  -16.7521  -15.0488 C   0  0  0  0  0  0  0  0  0  0  0  0
  -43.4416  -18.0649  -15.3932 C   0  0  0  0  0  0  0  0  0  0  0  0
  -44.6242  -18.2948  -16.0763 C   0  0  0  0  0  0  0  0  0  0  0  0
  -45.6563  -17.3645  -16.0827 C   0  0  0  0  0  0  0  0  0  0  0  0
  -47.0132  -17.7396  -16.5459 C   0  0  0  0  0  0  0  0  0  0  0  0
  -45.4531  -16.1135  -15.5115 C   0  0  0  0  0  0  0  0  0  0  0  0
  -46.8085  -15.2256  -14.8442 S   0  0  0  0  0  0  0  0  0  0  0  0
  -47.9251  -15.2372  -15.8366 O   0  0  0  0  0  0  0  0  0  0  0  0
  -47.2297  -15.9431  -13.5815 O   0  0  0  0  0  0  0  0  0  0  0  0
  -46.3477  -13.5908  -14.4949 N   0  0  0  0  0  0  0  0  0  0  0  0
  -46.1438  -13.1711  -13.1616 C   0  0  0  0  0  0  0  0  0  0  0  0
  -46.3933  -13.9808  -12.0596 C   0  0  0  0  0  0  0  0  0  0  0  0
  -45.7375  -13.7406  -10.8672 C   0  0  0  0  0  0  0  0  0  0  0  0
  -45.0854  -12.5415  -10.6803 C   0  0  0  0  0  0  0  0  0  0  0  0
  -45.3212  -11.5269  -11.5934 C   0  0  0  0  0  0  0  0  0  0  0  0
  -44.9688  -10.1764  -11.2115 C   0  0  0  0  0  0  0  0  0  0  0  0
  -45.5664   -9.2027  -11.7618 O   0  0  0  0  0  0  0  0  0  0  0  0
  -44.2032   -9.8738  -10.0391 N   0  0  0  0  0  0  0  0  0  0  0  0
  -44.1639   -8.5240   -9.5657 C   0  0  0  0  0  0  0  0  0  0  0  0
  -43.2104   -8.1242   -8.7757 N   0  0  0  0  0  0  0  0  0  0  0  0
  -43.5125   -6.8530   -8.1777 C   0  0  0  0  0  0  0  0  0  0  0  0
  -43.7603   -5.8689   -9.3178 C   0  0  0  0  0  0  0  0  0  0  0  0
  -44.5735   -7.0261  -10.4801 S   0  0  0  0  0  0  0  0  0  0  0  0
  -45.7697  -11.8666  -12.8636 C   0  0  0  0  0  0  0  0  0  0  0  0
  -44.1383  -15.7997  -15.1879 C   0  0  0  0  0  0  0  0  0  0  0  0
  1  2  1  0  0  0  0
  2  3  2  0  0  0  0
  3  4  1  0  0  0  0
  4  5  2  0  0  0  0
  5  6  1  0  0  0  0
  5  7  1  0  0  0  0
  7  8  1  0  0  0  0
  8  9  2  0  0  0  0
  8 10  2  0  0  0  0
  8 11  1  0  0  0  0
 11 12  1  0  0  0  0
 12 13  2  0  0  0  0
 13 14  1  0  0  0  0
 14 15  2  0  0  0  0
 15 16  1  0  0  0  0
 16 17  1  0  0  0  0
 17 18  2  0  0  0  0
 17 19  1  0  0  0  0
 19 20  1  0  0  0  0
 20 21  2  0  0  0  0
 21 22  1  0  0  0  0
 22 23  1  0  0  0  0
 23 24  1  0  0  0  0
 16 25  2  0  0  0  0
  7 26  2  0  0  0  0
 26  2  1  0  0  0  0
 25 12  1  0  0  0  0
 24 20  1  0  0  0  0
M  END
>  <zinc_id>  (247) 
ZINC000057984804

>  <smiles>  (247) 
Cc1ccc(C)c(S(=O)(=O)Nc2cccc(C(=O)NC3=NCCS3)c2)c1

>  <source_line>  (247) 
247

>  <source_data>  (247) 
ZINC000057984804

>  <source_name>  (247) 


>  <source_label>  (247) 
ZINC000057984804

>  <found_by>  (247) 
ZINC

> <Gold.Version>
5.8.1

> <Gold.Id.Protein>
ID|ID_protein|mol2

> <Gold.Goldscore.Fitness>
67.5854

> <Gold.Goldscore.Internal.Vdw>
0.5864

> <Gold.Goldscore.Internal.Torsion>
-7.2935

> <Gold.Goldscore.External.Vdw>
47.4950

> <Gold.Goldscore.Internal.HBond>
0.0000

> <Gold.Goldscore.External.HBond>
5.1958

> <Gold.Goldscore.Internal.Correction>
-3.7911

> <Gold.Goldscore.Hbonds>
donor molecule, donor type, donor heavy atom, donor atom, acceptor molecule, acceptor atom, score
      P1  H   112  4464       L1    11  0.83
      P1  H   426  4822       L1     9  0.09

> <Gold.Goldscore.Internal.Vdw.Weighted>
0.5864

> <Gold.Goldscore.Internal.Torsion.Weighted>
-7.2935

> <Gold.Goldscore.External.Vdw.Weighted>
65.3056

> <Gold.Goldscore.Internal.HBond.Weighted>
0.0000

> <Gold.Goldscore.External.HBond.Weighted>
5.1958

> <Gold.Goldscore.Internal.Correction.Weighted>
-3.7911

> <Gold.Protein.RotatedTorsions>
[ 4464  112  111  109 ] final   60.43 input   60.00 | X-H torsion
[ 4839  441  440  439 ] final  116.56 input   60.00 | X-H torsion
[ 4985  758  757  756 ] final   90.62 input   60.00 | X-H torsion
[ 5271 1023 1022 1020 ] final -120.25 input   60.00 | X-H torsion
[ 6036 1776 1775 1774 ] final   67.64 input   60.00 | X-H torsion
[ 6078 1819 1818 1817 ] final  -12.76 input   60.00 | X-H torsion
[ 6166 1916 1915 1913 ] final  -10.56 input   60.00 | X-H torsion
[ 4818   65   64   63 ] final   12.10 input   60.00 | X-H torsion
[ 6268 1997 1996 1994 ] final  175.42 input   60.00 | X-H torsion
[ 8592   72   71   70 ] final -145.69 input   60.00 | X-H torsion
[ 4356  100   99   97 ] final  133.12 input   60.00 | X-H torsion
[ 8510  202  201  200 ] final  -71.10 input   60.00 | X-H torsion
[ 5330 1065 1064 1063 ] final  -46.39 input   60.00 | X-H torsion
[ 6640 2347 2346 2344 ] final -119.62 input   60.00 | X-H torsion
[ 4452  380  379  378 ] final  113.18 input   60.00 | X-H torsion
[ 4500  391  390  389 ] final  -73.49 input   60.00 | X-H torsion

> <Gold.Protein.ActiveResidues>
 THR8    THR9    PRO10   ILE11   TYR12   TYR13   VAL14   ASN15   ALA16   HIS19  
 HIS22   SER25   VAL29   MET46   THR47   GLY48   THR49   ASP50   GLU51   HIS52  
 GLY53   GLN54   LYS55   VAL56   ALA57   GLU58   THR71   PHE78   ILE93   THR95  
 THR96   HIS100  GLU101  VAL104  TRP108  TYR126  VAL128  SER129  ASP130  GLU131 
 SER132  LEU210  SER211  ILE212  SER213  ARG214  LYS215  ARG216  SER218  VAL219 
 MET220  ASN221  TRP222  SER223  ILE224  PRO225  VAL226  HIS232  CYS233  ILE234 
 TYR235  VAL236  TRP237  LEU238  ASP239  ALA240  LEU241  PHE242  ASN243  TYR244 
 TYR245  THR246  HIS275  VAL276  VAL277  GLY278  LYS279  ASP280  ILE281  LEU282 
 LYS283  PHE284  HIS285  ALA286  ILE287  TYR288  TRP289  PRO290  PHE292  LEU304 
 TRP309 

> <Gold.Protein.RotatedAtoms>
  -32.1567   -8.2053   -6.3174 H   0  0  0  0  0  0  0  0  0  0  0  0  # atno 4356 bound_to 100 
  -30.5881   -8.7920   -7.9349 H   0  0  0  0  0  0  0  0  0  0  0  0  # atno 4452 bound_to 380 
  -45.6766  -11.7709  -15.4559 H   0  0  0  0  0  0  0  0  0  0  0  0  # atno 4464 bound_to 112 
  -33.6325  -10.4606  -16.0391 H   0  0  0  0  0  0  0  0  0  0  0  0  # atno 4500 bound_to 391 
  -30.8592  -15.2105   -2.7541 H   0  0  0  0  0  0  0  0  0  0  0  0  # atno 4818 bound_to 65  
  -47.9692  -11.3935  -14.2909 H   0  0  0  0  0  0  0  0  0  0  0  0  # atno 4839 bound_to 441 
  -48.5149  -11.3950  -12.7258 H   0  0  0  0  0  0  0  0  0  0  0  0  # atno 4840 bound_to 441 
  -49.4918  -10.8384  -13.9436 H   0  0  0  0  0  0  0  0  0  0  0  0  # atno 4841 bound_to 441 
  -37.5544  -18.0628  -15.7237 H   0  0  0  0  0  0  0  0  0  0  0  0  # atno 4985 bound_to 758 
  -54.6809  -16.0970  -14.1875 H   0  0  0  0  0  0  0  0  0  0  0  0  # atno 5271 bound_to 1023
  -53.7957  -16.0443   -7.9286 H   0  0  0  0  0  0  0  0  0  0  0  0  # atno 5330 bound_to 1065
  -55.0796  -16.5370  -18.2875 H   0  0  0  0  0  0  0  0  0  0  0  0  # atno 6036 bound_to 1776
  -44.8894  -17.0537  -19.2921 H   0  0  0  0  0  0  0  0  0  0  0  0  # atno 6078 bound_to 1819
  -49.7384  -15.1442  -12.3733 H   0  0  0  0  0  0  0  0  0  0  0  0  # atno 6166 bound_to 1916
  -35.8593  -15.9999   -4.8303 H   0  0  0  0  0  0  0  0  0  0  0  0  # atno 6268 bound_to 1997
  -49.2624  -20.2286   -2.8426 H   0  0  0  0  0  0  0  0  0  0  0  0  # atno 6640 bound_to 2347
  -35.0516   -7.2685   -1.2162 H   0  0  0  0  0  0  0  0  0  0  0  0  # atno 8510 bound_to 202 
  -32.1468   -8.6246   -5.1139 H   0  0  0  0  0  0  0  0  0  0  0  0  # atno 8592 bound_to 72  
  -44.7365  -11.1896  -16.6502 LP  0  0  0  0  0  0  0  0  0  0  0  0  # atno 8618 bound_to 112 
  -45.9928  -10.3075  -16.0933 LP  0  0  0  0  0  0  0  0  0  0  0  0  # atno 8619 bound_to 112 
  -37.5292  -17.8809  -17.3405 LP  0  0  0  0  0  0  0  0  0  0  0  0  # atno 8637 bound_to 758 
  -38.7414  -17.2294  -16.4615 LP  0  0  0  0  0  0  0  0  0  0  0  0  # atno 8638 bound_to 758 
  -54.5642  -17.3251  -15.2487 LP  0  0  0  0  0  0  0  0  0  0  0  0  # atno 8642 bound_to 1023
  -54.2231  -17.5707  -13.6708 LP  0  0  0  0  0  0  0  0  0  0  0  0  # atno 8643 bound_to 1023
  -53.4592  -16.3991  -18.2291 LP  0  0  0  0  0  0  0  0  0  0  0  0  # atno 8662 bound_to 1776
  -54.2122  -17.5765  -17.3846 LP  0  0  0  0  0  0  0  0  0  0  0  0  # atno 8663 bound_to 1776
  -45.5968  -18.0389  -18.2072 LP  0  0  0  0  0  0  0  0  0  0  0  0  # atno 8672 bound_to 1819
  -46.4100  -17.5751  -19.5451 LP  0  0  0  0  0  0  0  0  0  0  0  0  # atno 8673 bound_to 1819
  -48.9886  -15.2983  -10.9374 LP  0  0  0  0  0  0  0  0  0  0  0  0  # atno 8684 bound_to 1916
  -50.5293  -15.8089  -11.1161 LP  0  0  0  0  0  0  0  0  0  0  0  0  # atno 8685 bound_to 1916
  -30.6418  -16.7854   -3.1011 LP  0  0  0  0  0  0  0  0  0  0  0  0  # atno 8712 bound_to 65  
  -31.7775  -15.9208   -3.8943 LP  0  0  0  0  0  0  0  0  0  0  0  0  # atno 8713 bound_to 65  
  -34.7934  -15.0456   -5.6056 LP  0  0  0  0  0  0  0  0  0  0  0  0  # atno 8724 bound_to 1997
  -34.5578  -15.4308   -4.0363 LP  0  0  0  0  0  0  0  0  0  0  0  0  # atno 8725 bound_to 1997
  -31.5301   -8.8794   -3.6297 LP  0  0  0  0  0  0  0  0  0  0  0  0  # atno 8747 bound_to 72  
  -32.8435   -9.7136   -4.1256 LP  0  0  0  0  0  0  0  0  0  0  0  0  # atno 8748 bound_to 72  
  -33.3132   -7.7700   -5.2586 LP  0  0  0  0  0  0  0  0  0  0  0  0  # atno 8749 bound_to 100 
  -32.4328   -6.6284   -6.0256 LP  0  0  0  0  0  0  0  0  0  0  0  0  # atno 8750 bound_to 100 
  -35.6614   -7.2568   -2.7248 LP  0  0  0  0  0  0  0  0  0  0  0  0  # atno 8754 bound_to 202 
  -35.1654   -5.8644   -2.0308 LP  0  0  0  0  0  0  0  0  0  0  0  0  # atno 8755 bound_to 202 
  -54.5044  -15.1736   -6.7506 LP  0  0  0  0  0  0  0  0  0  0  0  0  # atno 8775 bound_to 1065
  -54.4591  -14.6003   -8.2789 LP  0  0  0  0  0  0  0  0  0  0  0  0  # atno 8776 bound_to 1065
  -48.9158  -20.0550   -1.2622 LP  0  0  0  0  0  0  0  0  0  0  0  0  # atno 8779 bound_to 2347
  -49.5150  -21.4683   -1.8192 LP  0  0  0  0  0  0  0  0  0  0  0  0  # atno 8780 bound_to 2347
  -31.2567   -9.7925   -9.0303 LP  0  0  0  0  0  0  0  0  0  0  0  0  # atno 8787 bound_to 380 
  -30.4576   -8.4559   -9.5218 LP  0  0  0  0  0  0  0  0  0  0  0  0  # atno 8788 bound_to 380 

$$$$
